# generated using pymatgen
data_Si
_symmetry_space_group_name_H-M   'P 1'
_cell_length_a   14.84162398
_cell_length_b   14.84162398
_cell_length_c   9.90215454
_cell_angle_alpha   86.45320455
_cell_angle_beta   86.45320455
_cell_angle_gamma   61.69805913
_symmetry_Int_Tables_number   1
_chemical_formula_structural   Si
_chemical_formula_sum   Si82
_cell_volume   1915.45679162
_cell_formula_units_Z   82
loop_
 _symmetry_equiv_pos_site_id
 _symmetry_equiv_pos_as_xyz
  1  'x, y, z'
loop_
 _atom_site_type_symbol
 _atom_site_label
 _atom_site_symmetry_multiplicity
 _atom_site_fract_x
 _atom_site_fract_y
 _atom_site_fract_z
 _atom_site_occupancy
  Si  Si0  1  0.45496100  0.65355100  0.10093200  1
  Si  Si1  1  0.34644900  0.54503900  0.39906800  1
  Si  Si2  1  0.54503900  0.34644900  0.89906800  1
  Si  Si3  1  0.65355100  0.45496100  0.60093200  1
  Si  Si4  1  0.59919200  0.67872500  0.10620500  1
  Si  Si5  1  0.32127500  0.40080800  0.39379500  1
  Si  Si6  1  0.40080800  0.32127500  0.89379500  1
  Si  Si7  1  0.67872500  0.59919200  0.60620500  1
  Si  Si8  1  0.72402400  0.54300900  0.23338700  1
  Si  Si9  1  0.45699100  0.27597600  0.26661300  1
  Si  Si10  1  0.27597600  0.45699100  0.76661300  1
  Si  Si11  1  0.54300900  0.72402400  0.73338700  1
  Si  Si12  1  0.88431600  0.45321900  0.11927900  1
  Si  Si13  1  0.54678100  0.11568400  0.38072100  1
  Si  Si14  1  0.11568400  0.54678100  0.88072100  1
  Si  Si15  1  0.45321900  0.88431600  0.61927900  1
  Si  Si16  1  0.55492300  0.34305000  0.14061600  1
  Si  Si17  1  0.65695000  0.44507700  0.35938400  1
  Si  Si18  1  0.44507700  0.65695000  0.85938400  1
  Si  Si19  1  0.34305000  0.55492300  0.64061600  1
  Si  Si20  1  0.95502700  0.17626500  0.99263400  1
  Si  Si21  1  0.82373500  0.04497300  0.50736600  1
  Si  Si22  1  0.04497300  0.82373500  0.00736600  1
  Si  Si23  1  0.17626500  0.95502700  0.49263400  1
  Si  Si24  1  0.93008800  0.28117400  0.17795300  1
  Si  Si25  1  0.71882600  0.06991200  0.32204700  1
  Si  Si26  1  0.06991200  0.71882600  0.82204700  1
  Si  Si27  1  0.28117400  0.93008800  0.67795300  1
  Si  Si28  1  0.82339000  0.12703800  0.99551800  1
  Si  Si29  1  0.87296200  0.17661000  0.50448200  1
  Si  Si30  1  0.17661000  0.87296200  0.00448200  1
  Si  Si31  1  0.12703800  0.82339000  0.49551800  1
  Si  Si32  1  0.79410800  0.27977500  0.31260200  1
  Si  Si33  1  0.72022500  0.20589200  0.18739800  1
  Si  Si34  1  0.20589200  0.72022500  0.68739800  1
  Si  Si35  1  0.27977500  0.79410800  0.81260200  1
  Si  Si36  1  0.35114100  0.11582000  0.09627400  1
  Si  Si37  1  0.88418000  0.64885900  0.40372600  1
  Si  Si38  1  0.64885900  0.88418000  0.90372600  1
  Si  Si39  1  0.11582000  0.35114100  0.59627400  1
  Si  Si40  1  0.34764600  0.27494400  0.10381200  1
  Si  Si41  1  0.72505600  0.65235400  0.39618800  1
  Si  Si42  1  0.65235400  0.72505600  0.89618800  1
  Si  Si43  1  0.27494400  0.34764600  0.60381200  1
  Si  Si44  1  0.60117600  0.78672400  0.26658900  1
  Si  Si45  1  0.21327600  0.39882400  0.23341100  1
  Si  Si46  1  0.39882400  0.21327600  0.73341100  1
  Si  Si47  1  0.78672400  0.60117600  0.76658900  1
  Si  Si48  1  0.45021600  0.90285100  0.37835400  1
  Si  Si49  1  0.09714900  0.54978400  0.12164600  1
  Si  Si50  1  0.54978400  0.09714900  0.62164600  1
  Si  Si51  1  0.90285100  0.45021600  0.87835400  1
  Si  Si52  1  0.48687700  0.02466600  0.25301200  1
  Si  Si53  1  0.97533400  0.51312300  0.24698800  1
  Si  Si54  1  0.51312300  0.97533400  0.74698800  1
  Si  Si55  1  0.02466600  0.48687700  0.75301200  1
  Si  Si56  1  0.64029300  0.90561900  0.14202000  1
  Si  Si57  1  0.09438100  0.35970700  0.35798000  1
  Si  Si58  1  0.35970700  0.09438100  0.85798000  1
  Si  Si59  1  0.90561900  0.64029300  0.64202000  1
  Si  Si60  1  0.29275800  0.78811200  0.18229000  1
  Si  Si61  1  0.21188800  0.70724200  0.31771000  1
  Si  Si62  1  0.70724200  0.21188800  0.81771000  1
  Si  Si63  1  0.78811200  0.29275800  0.68229000  1
  Si  Si64  1  0.29174900  0.92462600  0.30347000  1
  Si  Si65  1  0.07537400  0.70825100  0.19653000  1
  Si  Si66  1  0.70825100  0.07537400  0.69653000  1
  Si  Si67  1  0.92462600  0.29174900  0.80347000  1
  Si  Si68  1  0.13184200  0.05074400  0.99708800  1
  Si  Si69  1  0.94925600  0.86815800  0.50291200  1
  Si  Si70  1  0.86815800  0.94925600  0.00291200  1
  Si  Si71  1  0.05074400  0.13184200  0.49708800  1
  Si  Si72  1  0.21464000  0.08239600  0.17449200  1
  Si  Si73  1  0.91760400  0.78536000  0.32550800  1
  Si  Si74  1  0.78536000  0.91760400  0.82550800  1
  Si  Si75  1  0.08239600  0.21464000  0.67449200  1
  Si  Si76  1  0.08066600  0.21361600  0.30106900  1
  Si  Si77  1  0.78638400  0.91933400  0.19893100  1
  Si  Si78  1  0.91933400  0.78638400  0.69893100  1
  Si  Si79  1  0.21361600  0.08066600  0.80106900  1
  Si  Si80  1  0.49805100  0.50194900  0.25000000  1
  Si  Si81  1  0.50194900  0.49805100  0.75000000  1
# generated using pymatgen
data_Si
_symmetry_space_group_name_H-M   'P 1'
_cell_length_a   14.84162398
_cell_length_b   14.84162398
_cell_length_c   9.90215454
_cell_angle_alpha   86.45320455
_cell_angle_beta   86.45320455
_cell_angle_gamma   61.69805913
_symmetry_Int_Tables_number   1
_chemical_formula_structural   Si
_chemical_formula_sum   Si82
_cell_volume   1915.45679162
_cell_formula_units_Z   82
loop_
 _symmetry_equiv_pos_site_id
 _symmetry_equiv_pos_as_xyz
  1  'x, y, z'
loop_
 _atom_site_type_symbol
 _atom_site_label
 _atom_site_symmetry_multiplicity
 _atom_site_fract_x
 _atom_site_fract_y
 _atom_site_fract_z
 _atom_site_occupancy
  Si  Si0  1  0.45496100  0.65355100  0.10093200  1
  Si  Si1  1  0.34644900  0.54503900  0.39906800  1
  Si  Si2  1  0.54503900  0.34644900  0.89906800  1
  Si  Si3  1  0.65355100  0.45496100  0.60093200  1
  Si  Si4  1  0.59919200  0.67872500  0.10620500  1
  Si  Si5  1  0.32127500  0.40080800  0.39379500  1
  Si  Si6  1  0.40080800  0.32127500  0.89379500  1
  Si  Si7  1  0.67872500  0.59919200  0.60620500  1
  Si  Si8  1  0.72402400  0.54300900  0.23338700  1
  Si  Si9  1  0.45699100  0.27597600  0.26661300  1
  Si  Si10  1  0.27597600  0.45699100  0.76661300  1
  Si  Si11  1  0.54300900  0.72402400  0.73338700  1
  Si  Si12  1  0.88431600  0.45321900  0.11927900  1
  Si  Si13  1  0.54678100  0.11568400  0.38072100  1
  Si  Si14  1  0.11568400  0.54678100  0.88072100  1
  Si  Si15  1  0.45321900  0.88431600  0.61927900  1
  Si  Si16  1  0.55492300  0.34305000  0.14061600  1
  Si  Si17  1  0.65695000  0.44507700  0.35938400  1
  Si  Si18  1  0.44507700  0.65695000  0.85938400  1
  Si  Si19  1  0.34305000  0.55492300  0.64061600  1
  Si  Si20  1  0.95502700  0.17626500  0.99263400  1
  Si  Si21  1  0.82373500  0.04497300  0.50736600  1
  Si  Si22  1  0.04497300  0.82373500  0.00736600  1
  Si  Si23  1  0.17626500  0.95502700  0.49263400  1
  Si  Si24  1  0.93008800  0.28117400  0.17795300  1
  Si  Si25  1  0.71882600  0.06991200  0.32204700  1
  Si  Si26  1  0.06991200  0.71882600  0.82204700  1
  Si  Si27  1  0.28117400  0.93008800  0.67795300  1
  Si  Si28  1  0.82339000  0.12703800  0.99551800  1
  Si  Si29  1  0.87296200  0.17661000  0.50448200  1
  Si  Si30  1  0.17661000  0.87296200  0.00448200  1
  Si  Si31  1  0.12703800  0.82339000  0.49551800  1
  Si  Si32  1  0.79410800  0.27977500  0.31260200  1
  Si  Si33  1  0.72022500  0.20589200  0.18739800  1
  Si  Si34  1  0.20589200  0.72022500  0.68739800  1
  Si  Si35  1  0.27977500  0.79410800  0.81260200  1
  Si  Si36  1  0.35114100  0.11582000  0.09627400  1
  Si  Si37  1  0.88418000  0.64885900  0.40372600  1
  Si  Si38  1  0.64885900  0.88418000  0.90372600  1
  Si  Si39  1  0.11582000  0.35114100  0.59627400  1
  Si  Si40  1  0.34764600  0.27494400  0.10381200  1
  Si  Si41  1  0.72505600  0.65235400  0.39618800  1
  Si  Si42  1  0.65235400  0.72505600  0.89618800  1
  Si  Si43  1  0.27494400  0.34764600  0.60381200  1
  Si  Si44  1  0.60117600  0.78672400  0.26658900  1
  Si  Si45  1  0.21327600  0.39882400  0.23341100  1
  Si  Si46  1  0.39882400  0.21327600  0.73341100  1
  Si  Si47  1  0.78672400  0.60117600  0.76658900  1
  Si  Si48  1  0.45021600  0.90285100  0.37835400  1
  Si  Si49  1  0.09714900  0.54978400  0.12164600  1
  Si  Si50  1  0.54978400  0.09714900  0.62164600  1
  Si  Si51  1  0.90285100  0.45021600  0.87835400  1
  Si  Si52  1  0.48687700  0.02466600  0.25301200  1
  Si  Si53  1  0.97533400  0.51312300  0.24698800  1
  Si  Si54  1  0.51312300  0.97533400  0.74698800  1
  Si  Si55  1  0.02466600  0.48687700  0.75301200  1
  Si  Si56  1  0.64029300  0.90561900  0.14202000  1
  Si  Si57  1  0.09438100  0.35970700  0.35798000  1
  Si  Si58  1  0.35970700  0.09438100  0.85798000  1
  Si  Si59  1  0.90561900  0.64029300  0.64202000  1
  Si  Si60  1  0.29275800  0.78811200  0.18229000  1
  Si  Si61  1  0.21188800  0.70724200  0.31771000  1
  Si  Si62  1  0.70724200  0.21188800  0.81771000  1
  Si  Si63  1  0.78811200  0.29275800  0.68229000  1
  Si  Si64  1  0.29174900  0.92462600  0.30347000  1
  Si  Si65  1  0.07537400  0.70825100  0.19653000  1
  Si  Si66  1  0.70825100  0.07537400  0.69653000  1
  Si  Si67  1  0.92462600  0.29174900  0.80347000  1
  Si  Si68  1  0.13184200  0.05074400  0.99708800  1
  Si  Si69  1  0.94925600  0.86815800  0.50291200  1
  Si  Si70  1  0.86815800  0.94925600  0.00291200  1
  Si  Si71  1  0.05074400  0.13184200  0.49708800  1
  Si  Si72  1  0.21464000  0.08239600  0.17449200  1
  Si  Si73  1  0.91760400  0.78536000  0.32550800  1
  Si  Si74  1  0.78536000  0.91760400  0.82550800  1
  Si  Si75  1  0.08239600  0.21464000  0.67449200  1
  Si  Si76  1  0.08066600  0.21361600  0.30106900  1
  Si  Si77  1  0.78638400  0.91933400  0.19893100  1
  Si  Si78  1  0.91933400  0.78638400  0.69893100  1
  Si  Si79  1  0.21361600  0.08066600  0.80106900  1
  Si  Si80  1  0.49805100  0.50194900  0.25000000  1
  Si  Si81  1  0.50194900  0.49805100  0.75000000  1
# generated using pymatgen
data_Si
_symmetry_space_group_name_H-M   'P 1'
_cell_length_a   14.84162398
_cell_length_b   14.84162398
_cell_length_c   9.90215454
_cell_angle_alpha   86.45320455
_cell_angle_beta   86.45320455
_cell_angle_gamma   61.69805913
_symmetry_Int_Tables_number   1
_chemical_formula_structural   Si
_chemical_formula_sum   Si82
_cell_volume   1915.45679162
_cell_formula_units_Z   82
loop_
 _symmetry_equiv_pos_site_id
 _symmetry_equiv_pos_as_xyz
  1  'x, y, z'
loop_
 _atom_site_type_symbol
 _atom_site_label
 _atom_site_symmetry_multiplicity
 _atom_site_fract_x
 _atom_site_fract_y
 _atom_site_fract_z
 _atom_site_occupancy
  Si  Si0  1  0.45496100  0.65355100  0.10093200  1
  Si  Si1  1  0.34644900  0.54503900  0.39906800  1
  Si  Si2  1  0.54503900  0.34644900  0.89906800  1
  Si  Si3  1  0.65355100  0.45496100  0.60093200  1
  Si  Si4  1  0.59919200  0.67872500  0.10620500  1
  Si  Si5  1  0.32127500  0.40080800  0.39379500  1
  Si  Si6  1  0.40080800  0.32127500  0.89379500  1
  Si  Si7  1  0.67872500  0.59919200  0.60620500  1
  Si  Si8  1  0.72402400  0.54300900  0.23338700  1
  Si  Si9  1  0.45699100  0.27597600  0.26661300  1
  Si  Si10  1  0.27597600  0.45699100  0.76661300  1
  Si  Si11  1  0.54300900  0.72402400  0.73338700  1
  Si  Si12  1  0.88431600  0.45321900  0.11927900  1
  Si  Si13  1  0.54678100  0.11568400  0.38072100  1
  Si  Si14  1  0.11568400  0.54678100  0.88072100  1
  Si  Si15  1  0.45321900  0.88431600  0.61927900  1
  Si  Si16  1  0.55492300  0.34305000  0.14061600  1
  Si  Si17  1  0.65695000  0.44507700  0.35938400  1
  Si  Si18  1  0.44507700  0.65695000  0.85938400  1
  Si  Si19  1  0.34305000  0.55492300  0.64061600  1
  Si  Si20  1  0.95502700  0.17626500  0.99263400  1
  Si  Si21  1  0.82373500  0.04497300  0.50736600  1
  Si  Si22  1  0.04497300  0.82373500  0.00736600  1
  Si  Si23  1  0.17626500  0.95502700  0.49263400  1
  Si  Si24  1  0.93008800  0.28117400  0.17795300  1
  Si  Si25  1  0.71882600  0.06991200  0.32204700  1
  Si  Si26  1  0.06991200  0.71882600  0.82204700  1
  Si  Si27  1  0.28117400  0.93008800  0.67795300  1
  Si  Si28  1  0.82339000  0.12703800  0.99551800  1
  Si  Si29  1  0.87296200  0.17661000  0.50448200  1
  Si  Si30  1  0.17661000  0.87296200  0.00448200  1
  Si  Si31  1  0.12703800  0.82339000  0.49551800  1
  Si  Si32  1  0.79410800  0.27977500  0.31260200  1
  Si  Si33  1  0.72022500  0.20589200  0.18739800  1
  Si  Si34  1  0.20589200  0.72022500  0.68739800  1
  Si  Si35  1  0.27977500  0.79410800  0.81260200  1
  Si  Si36  1  0.35114100  0.11582000  0.09627400  1
  Si  Si37  1  0.88418000  0.64885900  0.40372600  1
  Si  Si38  1  0.64885900  0.88418000  0.90372600  1
  Si  Si39  1  0.11582000  0.35114100  0.59627400  1
  Si  Si40  1  0.34764600  0.27494400  0.10381200  1
  Si  Si41  1  0.72505600  0.65235400  0.39618800  1
  Si  Si42  1  0.65235400  0.72505600  0.89618800  1
  Si  Si43  1  0.27494400  0.34764600  0.60381200  1
  Si  Si44  1  0.60117600  0.78672400  0.26658900  1
  Si  Si45  1  0.21327600  0.39882400  0.23341100  1
  Si  Si46  1  0.39882400  0.21327600  0.73341100  1
  Si  Si47  1  0.78672400  0.60117600  0.76658900  1
  Si  Si48  1  0.45021600  0.90285100  0.37835400  1
  Si  Si49  1  0.09714900  0.54978400  0.12164600  1
  Si  Si50  1  0.54978400  0.09714900  0.62164600  1
  Si  Si51  1  0.90285100  0.45021600  0.87835400  1
  Si  Si52  1  0.48687700  0.02466600  0.25301200  1
  Si  Si53  1  0.97533400  0.51312300  0.24698800  1
  Si  Si54  1  0.51312300  0.97533400  0.74698800  1
  Si  Si55  1  0.02466600  0.48687700  0.75301200  1
  Si  Si56  1  0.64029300  0.90561900  0.14202000  1
  Si  Si57  1  0.09438100  0.35970700  0.35798000  1
  Si  Si58  1  0.35970700  0.09438100  0.85798000  1
  Si  Si59  1  0.90561900  0.64029300  0.64202000  1
  Si  Si60  1  0.29275800  0.78811200  0.18229000  1
  Si  Si61  1  0.21188800  0.70724200  0.31771000  1
  Si  Si62  1  0.70724200  0.21188800  0.81771000  1
  Si  Si63  1  0.78811200  0.29275800  0.68229000  1
  Si  Si64  1  0.29174900  0.92462600  0.30347000  1
  Si  Si65  1  0.07537400  0.70825100  0.19653000  1
  Si  Si66  1  0.70825100  0.07537400  0.69653000  1
  Si  Si67  1  0.92462600  0.29174900  0.80347000  1
  Si  Si68  1  0.13184200  0.05074400  0.99708800  1
  Si  Si69  1  0.94925600  0.86815800  0.50291200  1
  Si  Si70  1  0.86815800  0.94925600  0.00291200  1
  Si  Si71  1  0.05074400  0.13184200  0.49708800  1
  Si  Si72  1  0.21464000  0.08239600  0.17449200  1
  Si  Si73  1  0.91760400  0.78536000  0.32550800  1
  Si  Si74  1  0.78536000  0.91760400  0.82550800  1
  Si  Si75  1  0.08239600  0.21464000  0.67449200  1
  Si  Si76  1  0.08066600  0.21361600  0.30106900  1
  Si  Si77  1  0.78638400  0.91933400  0.19893100  1
  Si  Si78  1  0.91933400  0.78638400  0.69893100  1
  Si  Si79  1  0.21361600  0.08066600  0.80106900  1
  Si  Si80  1  0.49805100  0.50194900  0.25000000  1
  Si  Si81  1  0.50194900  0.49805100  0.75000000  1
# generated using pymatgen
data_Si
_symmetry_space_group_name_H-M   'P 1'
_cell_length_a   14.84162398
_cell_length_b   14.84162398
_cell_length_c   9.90215454
_cell_angle_alpha   86.45320455
_cell_angle_beta   86.45320455
_cell_angle_gamma   61.69805913
_symmetry_Int_Tables_number   1
_chemical_formula_structural   Si
_chemical_formula_sum   Si82
_cell_volume   1915.45679162
_cell_formula_units_Z   82
loop_
 _symmetry_equiv_pos_site_id
 _symmetry_equiv_pos_as_xyz
  1  'x, y, z'
loop_
 _atom_site_type_symbol
 _atom_site_label
 _atom_site_symmetry_multiplicity
 _atom_site_fract_x
 _atom_site_fract_y
 _atom_site_fract_z
 _atom_site_occupancy
  Si  Si0  1  0.45496100  0.65355100  0.10093200  1
  Si  Si1  1  0.34644900  0.54503900  0.39906800  1
  Si  Si2  1  0.54503900  0.34644900  0.89906800  1
  Si  Si3  1  0.65355100  0.45496100  0.60093200  1
  Si  Si4  1  0.59919200  0.67872500  0.10620500  1
  Si  Si5  1  0.32127500  0.40080800  0.39379500  1
  Si  Si6  1  0.40080800  0.32127500  0.89379500  1
  Si  Si7  1  0.67872500  0.59919200  0.60620500  1
  Si  Si8  1  0.72402400  0.54300900  0.23338700  1
  Si  Si9  1  0.45699100  0.27597600  0.26661300  1
  Si  Si10  1  0.27597600  0.45699100  0.76661300  1
  Si  Si11  1  0.54300900  0.72402400  0.73338700  1
  Si  Si12  1  0.88431600  0.45321900  0.11927900  1
  Si  Si13  1  0.54678100  0.11568400  0.38072100  1
  Si  Si14  1  0.11568400  0.54678100  0.88072100  1
  Si  Si15  1  0.45321900  0.88431600  0.61927900  1
  Si  Si16  1  0.55492300  0.34305000  0.14061600  1
  Si  Si17  1  0.65695000  0.44507700  0.35938400  1
  Si  Si18  1  0.44507700  0.65695000  0.85938400  1
  Si  Si19  1  0.34305000  0.55492300  0.64061600  1
  Si  Si20  1  0.95502700  0.17626500  0.99263400  1
  Si  Si21  1  0.82373500  0.04497300  0.50736600  1
  Si  Si22  1  0.04497300  0.82373500  0.00736600  1
  Si  Si23  1  0.17626500  0.95502700  0.49263400  1
  Si  Si24  1  0.93008800  0.28117400  0.17795300  1
  Si  Si25  1  0.71882600  0.06991200  0.32204700  1
  Si  Si26  1  0.06991200  0.71882600  0.82204700  1
  Si  Si27  1  0.28117400  0.93008800  0.67795300  1
  Si  Si28  1  0.82339000  0.12703800  0.99551800  1
  Si  Si29  1  0.87296200  0.17661000  0.50448200  1
  Si  Si30  1  0.17661000  0.87296200  0.00448200  1
  Si  Si31  1  0.12703800  0.82339000  0.49551800  1
  Si  Si32  1  0.79410800  0.27977500  0.31260200  1
  Si  Si33  1  0.72022500  0.20589200  0.18739800  1
  Si  Si34  1  0.20589200  0.72022500  0.68739800  1
  Si  Si35  1  0.27977500  0.79410800  0.81260200  1
  Si  Si36  1  0.35114100  0.11582000  0.09627400  1
  Si  Si37  1  0.88418000  0.64885900  0.40372600  1
  Si  Si38  1  0.64885900  0.88418000  0.90372600  1
  Si  Si39  1  0.11582000  0.35114100  0.59627400  1
  Si  Si40  1  0.34764600  0.27494400  0.10381200  1
  Si  Si41  1  0.72505600  0.65235400  0.39618800  1
  Si  Si42  1  0.65235400  0.72505600  0.89618800  1
  Si  Si43  1  0.27494400  0.34764600  0.60381200  1
  Si  Si44  1  0.60117600  0.78672400  0.26658900  1
  Si  Si45  1  0.21327600  0.39882400  0.23341100  1
  Si  Si46  1  0.39882400  0.21327600  0.73341100  1
  Si  Si47  1  0.78672400  0.60117600  0.76658900  1
  Si  Si48  1  0.45021600  0.90285100  0.37835400  1
  Si  Si49  1  0.09714900  0.54978400  0.12164600  1
  Si  Si50  1  0.54978400  0.09714900  0.62164600  1
  Si  Si51  1  0.90285100  0.45021600  0.87835400  1
  Si  Si52  1  0.48687700  0.02466600  0.25301200  1
  Si  Si53  1  0.97533400  0.51312300  0.24698800  1
  Si  Si54  1  0.51312300  0.97533400  0.74698800  1
  Si  Si55  1  0.02466600  0.48687700  0.75301200  1
  Si  Si56  1  0.64029300  0.90561900  0.14202000  1
  Si  Si57  1  0.09438100  0.35970700  0.35798000  1
  Si  Si58  1  0.35970700  0.09438100  0.85798000  1
  Si  Si59  1  0.90561900  0.64029300  0.64202000  1
  Si  Si60  1  0.29275800  0.78811200  0.18229000  1
  Si  Si61  1  0.21188800  0.70724200  0.31771000  1
  Si  Si62  1  0.70724200  0.21188800  0.81771000  1
  Si  Si63  1  0.78811200  0.29275800  0.68229000  1
  Si  Si64  1  0.29174900  0.92462600  0.30347000  1
  Si  Si65  1  0.07537400  0.70825100  0.19653000  1
  Si  Si66  1  0.70825100  0.07537400  0.69653000  1
  Si  Si67  1  0.92462600  0.29174900  0.80347000  1
  Si  Si68  1  0.13184200  0.05074400  0.99708800  1
  Si  Si69  1  0.94925600  0.86815800  0.50291200  1
  Si  Si70  1  0.86815800  0.94925600  0.00291200  1
  Si  Si71  1  0.05074400  0.13184200  0.49708800  1
  Si  Si72  1  0.21464000  0.08239600  0.17449200  1
  Si  Si73  1  0.91760400  0.78536000  0.32550800  1
  Si  Si74  1  0.78536000  0.91760400  0.82550800  1
  Si  Si75  1  0.08239600  0.21464000  0.67449200  1
  Si  Si76  1  0.08066600  0.21361600  0.30106900  1
  Si  Si77  1  0.78638400  0.91933400  0.19893100  1
  Si  Si78  1  0.91933400  0.78638400  0.69893100  1
  Si  Si79  1  0.21361600  0.08066600  0.80106900  1
  Si  Si80  1  0.49805100  0.50194900  0.25000000  1
  Si  Si81  1  0.50194900  0.49805100  0.75000000  1
# generated using pymatgen
data_Si
_symmetry_space_group_name_H-M   'P 1'
_cell_length_a   14.84162398
_cell_length_b   14.84162398
_cell_length_c   9.90215454
_cell_angle_alpha   86.45320455
_cell_angle_beta   86.45320455
_cell_angle_gamma   61.69805913
_symmetry_Int_Tables_number   1
_chemical_formula_structural   Si
_chemical_formula_sum   Si82
_cell_volume   1915.45679162
_cell_formula_units_Z   82
loop_
 _symmetry_equiv_pos_site_id
 _symmetry_equiv_pos_as_xyz
  1  'x, y, z'
loop_
 _atom_site_type_symbol
 _atom_site_label
 _atom_site_symmetry_multiplicity
 _atom_site_fract_x
 _atom_site_fract_y
 _atom_site_fract_z
 _atom_site_occupancy
  Si  Si0  1  0.45496100  0.65355100  0.10093200  1
  Si  Si1  1  0.34644900  0.54503900  0.39906800  1
  Si  Si2  1  0.54503900  0.34644900  0.89906800  1
  Si  Si3  1  0.65355100  0.45496100  0.60093200  1
  Si  Si4  1  0.59919200  0.67872500  0.10620500  1
  Si  Si5  1  0.32127500  0.40080800  0.39379500  1
  Si  Si6  1  0.40080800  0.32127500  0.89379500  1
  Si  Si7  1  0.67872500  0.59919200  0.60620500  1
  Si  Si8  1  0.72402400  0.54300900  0.23338700  1
  Si  Si9  1  0.45699100  0.27597600  0.26661300  1
  Si  Si10  1  0.27597600  0.45699100  0.76661300  1
  Si  Si11  1  0.54300900  0.72402400  0.73338700  1
  Si  Si12  1  0.88431600  0.45321900  0.11927900  1
  Si  Si13  1  0.54678100  0.11568400  0.38072100  1
  Si  Si14  1  0.11568400  0.54678100  0.88072100  1
  Si  Si15  1  0.45321900  0.88431600  0.61927900  1
  Si  Si16  1  0.55492300  0.34305000  0.14061600  1
  Si  Si17  1  0.65695000  0.44507700  0.35938400  1
  Si  Si18  1  0.44507700  0.65695000  0.85938400  1
  Si  Si19  1  0.34305000  0.55492300  0.64061600  1
  Si  Si20  1  0.95502700  0.17626500  0.99263400  1
  Si  Si21  1  0.82373500  0.04497300  0.50736600  1
  Si  Si22  1  0.04497300  0.82373500  0.00736600  1
  Si  Si23  1  0.17626500  0.95502700  0.49263400  1
  Si  Si24  1  0.93008800  0.28117400  0.17795300  1
  Si  Si25  1  0.71882600  0.06991200  0.32204700  1
  Si  Si26  1  0.06991200  0.71882600  0.82204700  1
  Si  Si27  1  0.28117400  0.93008800  0.67795300  1
  Si  Si28  1  0.82339000  0.12703800  0.99551800  1
  Si  Si29  1  0.87296200  0.17661000  0.50448200  1
  Si  Si30  1  0.17661000  0.87296200  0.00448200  1
  Si  Si31  1  0.12703800  0.82339000  0.49551800  1
  Si  Si32  1  0.79410800  0.27977500  0.31260200  1
  Si  Si33  1  0.72022500  0.20589200  0.18739800  1
  Si  Si34  1  0.20589200  0.72022500  0.68739800  1
  Si  Si35  1  0.27977500  0.79410800  0.81260200  1
  Si  Si36  1  0.35114100  0.11582000  0.09627400  1
  Si  Si37  1  0.88418000  0.64885900  0.40372600  1
  Si  Si38  1  0.64885900  0.88418000  0.90372600  1
  Si  Si39  1  0.11582000  0.35114100  0.59627400  1
  Si  Si40  1  0.34764600  0.27494400  0.10381200  1
  Si  Si41  1  0.72505600  0.65235400  0.39618800  1
  Si  Si42  1  0.65235400  0.72505600  0.89618800  1
  Si  Si43  1  0.27494400  0.34764600  0.60381200  1
  Si  Si44  1  0.60117600  0.78672400  0.26658900  1
  Si  Si45  1  0.21327600  0.39882400  0.23341100  1
  Si  Si46  1  0.39882400  0.21327600  0.73341100  1
  Si  Si47  1  0.78672400  0.60117600  0.76658900  1
  Si  Si48  1  0.45021600  0.90285100  0.37835400  1
  Si  Si49  1  0.09714900  0.54978400  0.12164600  1
  Si  Si50  1  0.54978400  0.09714900  0.62164600  1
  Si  Si51  1  0.90285100  0.45021600  0.87835400  1
  Si  Si52  1  0.48687700  0.02466600  0.25301200  1
  Si  Si53  1  0.97533400  0.51312300  0.24698800  1
  Si  Si54  1  0.51312300  0.97533400  0.74698800  1
  Si  Si55  1  0.02466600  0.48687700  0.75301200  1
  Si  Si56  1  0.64029300  0.90561900  0.14202000  1
  Si  Si57  1  0.09438100  0.35970700  0.35798000  1
  Si  Si58  1  0.35970700  0.09438100  0.85798000  1
  Si  Si59  1  0.90561900  0.64029300  0.64202000  1
  Si  Si60  1  0.29275800  0.78811200  0.18229000  1
  Si  Si61  1  0.21188800  0.70724200  0.31771000  1
  Si  Si62  1  0.70724200  0.21188800  0.81771000  1
  Si  Si63  1  0.78811200  0.29275800  0.68229000  1
  Si  Si64  1  0.29174900  0.92462600  0.30347000  1
  Si  Si65  1  0.07537400  0.70825100  0.19653000  1
  Si  Si66  1  0.70825100  0.07537400  0.69653000  1
  Si  Si67  1  0.92462600  0.29174900  0.80347000  1
  Si  Si68  1  0.13184200  0.05074400  0.99708800  1
  Si  Si69  1  0.94925600  0.86815800  0.50291200  1
  Si  Si70  1  0.86815800  0.94925600  0.00291200  1
  Si  Si71  1  0.05074400  0.13184200  0.49708800  1
  Si  Si72  1  0.21464000  0.08239600  0.17449200  1
  Si  Si73  1  0.91760400  0.78536000  0.32550800  1
  Si  Si74  1  0.78536000  0.91760400  0.82550800  1
  Si  Si75  1  0.08239600  0.21464000  0.67449200  1
  Si  Si76  1  0.08066600  0.21361600  0.30106900  1
  Si  Si77  1  0.78638400  0.91933400  0.19893100  1
  Si  Si78  1  0.91933400  0.78638400  0.69893100  1
  Si  Si79  1  0.21361600  0.08066600  0.80106900  1
  Si  Si80  1  0.49805100  0.50194900  0.25000000  1
  Si  Si81  1  0.50194900  0.49805100  0.75000000  1
# generated using pymatgen
data_Si
_symmetry_space_group_name_H-M   'P 1'
_cell_length_a   14.84162398
_cell_length_b   14.84162398
_cell_length_c   9.90215454
_cell_angle_alpha   86.45320455
_cell_angle_beta   86.45320455
_cell_angle_gamma   61.69805913
_symmetry_Int_Tables_number   1
_chemical_formula_structural   Si
_chemical_formula_sum   Si82
_cell_volume   1915.45679162
_cell_formula_units_Z   82
loop_
 _symmetry_equiv_pos_site_id
 _symmetry_equiv_pos_as_xyz
  1  'x, y, z'
loop_
 _atom_site_type_symbol
 _atom_site_label
 _atom_site_symmetry_multiplicity
 _atom_site_fract_x
 _atom_site_fract_y
 _atom_site_fract_z
 _atom_site_occupancy
  Si  Si0  1  0.45496100  0.65355100  0.10093200  1
  Si  Si1  1  0.34644900  0.54503900  0.39906800  1
  Si  Si2  1  0.54503900  0.34644900  0.89906800  1
  Si  Si3  1  0.65355100  0.45496100  0.60093200  1
  Si  Si4  1  0.59919200  0.67872500  0.10620500  1
  Si  Si5  1  0.32127500  0.40080800  0.39379500  1
  Si  Si6  1  0.40080800  0.32127500  0.89379500  1
  Si  Si7  1  0.67872500  0.59919200  0.60620500  1
  Si  Si8  1  0.72402400  0.54300900  0.23338700  1
  Si  Si9  1  0.45699100  0.27597600  0.26661300  1
  Si  Si10  1  0.27597600  0.45699100  0.76661300  1
  Si  Si11  1  0.54300900  0.72402400  0.73338700  1
  Si  Si12  1  0.88431600  0.45321900  0.11927900  1
  Si  Si13  1  0.54678100  0.11568400  0.38072100  1
  Si  Si14  1  0.11568400  0.54678100  0.88072100  1
  Si  Si15  1  0.45321900  0.88431600  0.61927900  1
  Si  Si16  1  0.55492300  0.34305000  0.14061600  1
  Si  Si17  1  0.65695000  0.44507700  0.35938400  1
  Si  Si18  1  0.44507700  0.65695000  0.85938400  1
  Si  Si19  1  0.34305000  0.55492300  0.64061600  1
  Si  Si20  1  0.95502700  0.17626500  0.99263400  1
  Si  Si21  1  0.82373500  0.04497300  0.50736600  1
  Si  Si22  1  0.04497300  0.82373500  0.00736600  1
  Si  Si23  1  0.17626500  0.95502700  0.49263400  1
  Si  Si24  1  0.93008800  0.28117400  0.17795300  1
  Si  Si25  1  0.71882600  0.06991200  0.32204700  1
  Si  Si26  1  0.06991200  0.71882600  0.82204700  1
  Si  Si27  1  0.28117400  0.93008800  0.67795300  1
  Si  Si28  1  0.82339000  0.12703800  0.99551800  1
  Si  Si29  1  0.87296200  0.17661000  0.50448200  1
  Si  Si30  1  0.17661000  0.87296200  0.00448200  1
  Si  Si31  1  0.12703800  0.82339000  0.49551800  1
  Si  Si32  1  0.79410800  0.27977500  0.31260200  1
  Si  Si33  1  0.72022500  0.20589200  0.18739800  1
  Si  Si34  1  0.20589200  0.72022500  0.68739800  1
  Si  Si35  1  0.27977500  0.79410800  0.81260200  1
  Si  Si36  1  0.35114100  0.11582000  0.09627400  1
  Si  Si37  1  0.88418000  0.64885900  0.40372600  1
  Si  Si38  1  0.64885900  0.88418000  0.90372600  1
  Si  Si39  1  0.11582000  0.35114100  0.59627400  1
  Si  Si40  1  0.34764600  0.27494400  0.10381200  1
  Si  Si41  1  0.72505600  0.65235400  0.39618800  1
  Si  Si42  1  0.65235400  0.72505600  0.89618800  1
  Si  Si43  1  0.27494400  0.34764600  0.60381200  1
  Si  Si44  1  0.60117600  0.78672400  0.26658900  1
  Si  Si45  1  0.21327600  0.39882400  0.23341100  1
  Si  Si46  1  0.39882400  0.21327600  0.73341100  1
  Si  Si47  1  0.78672400  0.60117600  0.76658900  1
  Si  Si48  1  0.45021600  0.90285100  0.37835400  1
  Si  Si49  1  0.09714900  0.54978400  0.12164600  1
  Si  Si50  1  0.54978400  0.09714900  0.62164600  1
  Si  Si51  1  0.90285100  0.45021600  0.87835400  1
  Si  Si52  1  0.48687700  0.02466600  0.25301200  1
  Si  Si53  1  0.97533400  0.51312300  0.24698800  1
  Si  Si54  1  0.51312300  0.97533400  0.74698800  1
  Si  Si55  1  0.02466600  0.48687700  0.75301200  1
  Si  Si56  1  0.64029300  0.90561900  0.14202000  1
  Si  Si57  1  0.09438100  0.35970700  0.35798000  1
  Si  Si58  1  0.35970700  0.09438100  0.85798000  1
  Si  Si59  1  0.90561900  0.64029300  0.64202000  1
  Si  Si60  1  0.29275800  0.78811200  0.18229000  1
  Si  Si61  1  0.21188800  0.70724200  0.31771000  1
  Si  Si62  1  0.70724200  0.21188800  0.81771000  1
  Si  Si63  1  0.78811200  0.29275800  0.68229000  1
  Si  Si64  1  0.29174900  0.92462600  0.30347000  1
  Si  Si65  1  0.07537400  0.70825100  0.19653000  1
  Si  Si66  1  0.70825100  0.07537400  0.69653000  1
  Si  Si67  1  0.92462600  0.29174900  0.80347000  1
  Si  Si68  1  0.13184200  0.05074400  0.99708800  1
  Si  Si69  1  0.94925600  0.86815800  0.50291200  1
  Si  Si70  1  0.86815800  0.94925600  0.00291200  1
  Si  Si71  1  0.05074400  0.13184200  0.49708800  1
  Si  Si72  1  0.21464000  0.08239600  0.17449200  1
  Si  Si73  1  0.91760400  0.78536000  0.32550800  1
  Si  Si74  1  0.78536000  0.91760400  0.82550800  1
  Si  Si75  1  0.08239600  0.21464000  0.67449200  1
  Si  Si76  1  0.08066600  0.21361600  0.30106900  1
  Si  Si77  1  0.78638400  0.91933400  0.19893100  1
  Si  Si78  1  0.91933400  0.78638400  0.69893100  1
  Si  Si79  1  0.21361600  0.08066600  0.80106900  1
  Si  Si80  1  0.49805100  0.50194900  0.25000000  1
  Si  Si81  1  0.50194900  0.49805100  0.75000000  1
