# generated using pymatgen
data_Se
_symmetry_space_group_name_H-M   'P 1'
_cell_length_a   6.75373502
_cell_length_b   6.75373502
_cell_length_c   6.75373483
_cell_angle_alpha   113.38081957
_cell_angle_beta   113.38081957
_cell_angle_gamma   113.38082801
_symmetry_Int_Tables_number   1
_chemical_formula_structural   Se
_chemical_formula_sum   Se6
_cell_volume   195.45560952
_cell_formula_units_Z   6
loop_
 _symmetry_equiv_pos_site_id
 _symmetry_equiv_pos_as_xyz
  1  'x, y, z'
loop_
 _atom_site_type_symbol
 _atom_site_label
 _atom_site_symmetry_multiplicity
 _atom_site_fract_x
 _atom_site_fract_y
 _atom_site_fract_z
 _atom_site_occupancy
  Se  Se0  1  0.10485200  0.73086000  0.86244400  1
  Se  Se1  1  0.73086000  0.86244400  0.10485200  1
  Se  Se2  1  0.13755600  0.89514800  0.26914000  1
  Se  Se3  1  0.89514800  0.26914000  0.13755600  1
  Se  Se4  1  0.86244400  0.10485200  0.73086000  1
  Se  Se5  1  0.26914000  0.13755600  0.89514800  1
# generated using pymatgen
data_Se
_symmetry_space_group_name_H-M   'P 1'
_cell_length_a   6.75373502
_cell_length_b   6.75373502
_cell_length_c   6.75373483
_cell_angle_alpha   113.38081957
_cell_angle_beta   113.38081957
_cell_angle_gamma   113.38082801
_symmetry_Int_Tables_number   1
_chemical_formula_structural   Se
_chemical_formula_sum   Se6
_cell_volume   195.45560952
_cell_formula_units_Z   6
loop_
 _symmetry_equiv_pos_site_id
 _symmetry_equiv_pos_as_xyz
  1  'x, y, z'
loop_
 _atom_site_type_symbol
 _atom_site_label
 _atom_site_symmetry_multiplicity
 _atom_site_fract_x
 _atom_site_fract_y
 _atom_site_fract_z
 _atom_site_occupancy
  Se  Se0  1  0.10485200  0.73086000  0.86244400  1
  Se  Se1  1  0.73086000  0.86244400  0.10485200  1
  Se  Se2  1  0.13755600  0.89514800  0.26914000  1
  Se  Se3  1  0.89514800  0.26914000  0.13755600  1
  Se  Se4  1  0.86244400  0.10485200  0.73086000  1
  Se  Se5  1  0.26914000  0.13755600  0.89514800  1
# generated using pymatgen
data_Se
_symmetry_space_group_name_H-M   'P 1'
_cell_length_a   6.75373502
_cell_length_b   6.75373502
_cell_length_c   6.75373483
_cell_angle_alpha   113.38081957
_cell_angle_beta   113.38081957
_cell_angle_gamma   113.38082801
_symmetry_Int_Tables_number   1
_chemical_formula_structural   Se
_chemical_formula_sum   Se6
_cell_volume   195.45560952
_cell_formula_units_Z   6
loop_
 _symmetry_equiv_pos_site_id
 _symmetry_equiv_pos_as_xyz
  1  'x, y, z'
loop_
 _atom_site_type_symbol
 _atom_site_label
 _atom_site_symmetry_multiplicity
 _atom_site_fract_x
 _atom_site_fract_y
 _atom_site_fract_z
 _atom_site_occupancy
  Se  Se0  1  0.10485200  0.73086000  0.86244400  1
  Se  Se1  1  0.73086000  0.86244400  0.10485200  1
  Se  Se2  1  0.13755600  0.89514800  0.26914000  1
  Se  Se3  1  0.89514800  0.26914000  0.13755600  1
  Se  Se4  1  0.86244400  0.10485200  0.73086000  1
  Se  Se5  1  0.26914000  0.13755600  0.89514800  1
# generated using pymatgen
data_Se
_symmetry_space_group_name_H-M   'P 1'
_cell_length_a   6.75373502
_cell_length_b   6.75373502
_cell_length_c   6.75373483
_cell_angle_alpha   113.38081957
_cell_angle_beta   113.38081957
_cell_angle_gamma   113.38082801
_symmetry_Int_Tables_number   1
_chemical_formula_structural   Se
_chemical_formula_sum   Se6
_cell_volume   195.45560952
_cell_formula_units_Z   6
loop_
 _symmetry_equiv_pos_site_id
 _symmetry_equiv_pos_as_xyz
  1  'x, y, z'
loop_
 _atom_site_type_symbol
 _atom_site_label
 _atom_site_symmetry_multiplicity
 _atom_site_fract_x
 _atom_site_fract_y
 _atom_site_fract_z
 _atom_site_occupancy
  Se  Se0  1  0.10485200  0.73086000  0.86244400  1
  Se  Se1  1  0.73086000  0.86244400  0.10485200  1
  Se  Se2  1  0.13755600  0.89514800  0.26914000  1
  Se  Se3  1  0.89514800  0.26914000  0.13755600  1
  Se  Se4  1  0.86244400  0.10485200  0.73086000  1
  Se  Se5  1  0.26914000  0.13755600  0.89514800  1
# generated using pymatgen
data_Se
_symmetry_space_group_name_H-M   'P 1'
_cell_length_a   6.75373502
_cell_length_b   6.75373502
_cell_length_c   6.75373483
_cell_angle_alpha   113.38081957
_cell_angle_beta   113.38081957
_cell_angle_gamma   113.38082801
_symmetry_Int_Tables_number   1
_chemical_formula_structural   Se
_chemical_formula_sum   Se6
_cell_volume   195.45560952
_cell_formula_units_Z   6
loop_
 _symmetry_equiv_pos_site_id
 _symmetry_equiv_pos_as_xyz
  1  'x, y, z'
loop_
 _atom_site_type_symbol
 _atom_site_label
 _atom_site_symmetry_multiplicity
 _atom_site_fract_x
 _atom_site_fract_y
 _atom_site_fract_z
 _atom_site_occupancy
  Se  Se0  1  0.10485200  0.73086000  0.86244400  1
  Se  Se1  1  0.73086000  0.86244400  0.10485200  1
  Se  Se2  1  0.13755600  0.89514800  0.26914000  1
  Se  Se3  1  0.89514800  0.26914000  0.13755600  1
  Se  Se4  1  0.86244400  0.10485200  0.73086000  1
  Se  Se5  1  0.26914000  0.13755600  0.89514800  1
