# generated using pymatgen
data_Ge
_symmetry_space_group_name_H-M   'P 1'
_cell_length_a   11.04494145
_cell_length_b   11.04494145
_cell_length_c   11.04494145
_cell_angle_alpha   60.00000000
_cell_angle_beta   60.00000000
_cell_angle_gamma   60.00000000
_symmetry_Int_Tables_number   1
_chemical_formula_structural   Ge
_chemical_formula_sum   Ge34
_cell_volume   952.74188120
_cell_formula_units_Z   34
loop_
 _symmetry_equiv_pos_site_id
 _symmetry_equiv_pos_as_xyz
  1  'x, y, z'
loop_
 _atom_site_type_symbol
 _atom_site_label
 _atom_site_symmetry_multiplicity
 _atom_site_fract_x
 _atom_site_fract_y
 _atom_site_fract_z
 _atom_site_occupancy
  Ge  Ge0  1  0.25000000  0.25000000  0.25000000  1
  Ge  Ge1  1  0.00000000  0.00000000  0.00000000  1
  Ge  Ge2  1  0.35372400  0.35372400  0.93882800  1
  Ge  Ge3  1  0.35372400  0.93882800  0.35372400  1
  Ge  Ge4  1  0.93882800  0.35372400  0.35372400  1
  Ge  Ge5  1  0.35372400  0.35372400  0.35372400  1
  Ge  Ge6  1  0.89627600  0.89627600  0.31117200  1
  Ge  Ge7  1  0.89627600  0.31117200  0.89627600  1
  Ge  Ge8  1  0.31117200  0.89627600  0.89627600  1
  Ge  Ge9  1  0.89627600  0.89627600  0.89627600  1
  Ge  Ge10  1  0.99523900  0.38726600  0.62225600  1
  Ge  Ge11  1  0.99523900  0.99523900  0.62225600  1
  Ge  Ge12  1  0.38726600  0.99523900  0.62225600  1
  Ge  Ge13  1  0.99523900  0.62225600  0.38726600  1
  Ge  Ge14  1  0.38726600  0.62225600  0.99523900  1
  Ge  Ge15  1  0.99523900  0.62225600  0.99523900  1
  Ge  Ge16  1  0.62225600  0.99523900  0.99523900  1
  Ge  Ge17  1  0.62225600  0.38726600  0.99523900  1
  Ge  Ge18  1  0.62225600  0.99523900  0.38726600  1
  Ge  Ge19  1  0.38726600  0.99523900  0.99523900  1
  Ge  Ge20  1  0.99523900  0.99523900  0.38726600  1
  Ge  Ge21  1  0.99523900  0.38726600  0.99523900  1
  Ge  Ge22  1  0.25476100  0.86273400  0.62774400  1
  Ge  Ge23  1  0.25476100  0.25476100  0.62774400  1
  Ge  Ge24  1  0.86273400  0.25476100  0.62774400  1
  Ge  Ge25  1  0.25476100  0.62774400  0.86273400  1
  Ge  Ge26  1  0.86273400  0.62774400  0.25476100  1
  Ge  Ge27  1  0.25476100  0.62774400  0.25476100  1
  Ge  Ge28  1  0.62774400  0.25476100  0.25476100  1
  Ge  Ge29  1  0.62774400  0.86273400  0.25476100  1
  Ge  Ge30  1  0.62774400  0.25476100  0.86273400  1
  Ge  Ge31  1  0.86273400  0.25476100  0.25476100  1
  Ge  Ge32  1  0.25476100  0.25476100  0.86273400  1
  Ge  Ge33  1  0.25476100  0.86273400  0.25476100  1
# generated using pymatgen
data_Ge
_symmetry_space_group_name_H-M   'P 1'
_cell_length_a   11.04494145
_cell_length_b   11.04494145
_cell_length_c   11.04494145
_cell_angle_alpha   60.00000000
_cell_angle_beta   60.00000000
_cell_angle_gamma   60.00000000
_symmetry_Int_Tables_number   1
_chemical_formula_structural   Ge
_chemical_formula_sum   Ge34
_cell_volume   952.74188120
_cell_formula_units_Z   34
loop_
 _symmetry_equiv_pos_site_id
 _symmetry_equiv_pos_as_xyz
  1  'x, y, z'
loop_
 _atom_site_type_symbol
 _atom_site_label
 _atom_site_symmetry_multiplicity
 _atom_site_fract_x
 _atom_site_fract_y
 _atom_site_fract_z
 _atom_site_occupancy
  Ge  Ge0  1  0.25000000  0.25000000  0.25000000  1
  Ge  Ge1  1  0.00000000  0.00000000  0.00000000  1
  Ge  Ge2  1  0.35372400  0.35372400  0.93882800  1
  Ge  Ge3  1  0.35372400  0.93882800  0.35372400  1
  Ge  Ge4  1  0.93882800  0.35372400  0.35372400  1
  Ge  Ge5  1  0.35372400  0.35372400  0.35372400  1
  Ge  Ge6  1  0.89627600  0.89627600  0.31117200  1
  Ge  Ge7  1  0.89627600  0.31117200  0.89627600  1
  Ge  Ge8  1  0.31117200  0.89627600  0.89627600  1
  Ge  Ge9  1  0.89627600  0.89627600  0.89627600  1
  Ge  Ge10  1  0.99523900  0.38726600  0.62225600  1
  Ge  Ge11  1  0.99523900  0.99523900  0.62225600  1
  Ge  Ge12  1  0.38726600  0.99523900  0.62225600  1
  Ge  Ge13  1  0.99523900  0.62225600  0.38726600  1
  Ge  Ge14  1  0.38726600  0.62225600  0.99523900  1
  Ge  Ge15  1  0.99523900  0.62225600  0.99523900  1
  Ge  Ge16  1  0.62225600  0.99523900  0.99523900  1
  Ge  Ge17  1  0.62225600  0.38726600  0.99523900  1
  Ge  Ge18  1  0.62225600  0.99523900  0.38726600  1
  Ge  Ge19  1  0.38726600  0.99523900  0.99523900  1
  Ge  Ge20  1  0.99523900  0.99523900  0.38726600  1
  Ge  Ge21  1  0.99523900  0.38726600  0.99523900  1
  Ge  Ge22  1  0.25476100  0.86273400  0.62774400  1
  Ge  Ge23  1  0.25476100  0.25476100  0.62774400  1
  Ge  Ge24  1  0.86273400  0.25476100  0.62774400  1
  Ge  Ge25  1  0.25476100  0.62774400  0.86273400  1
  Ge  Ge26  1  0.86273400  0.62774400  0.25476100  1
  Ge  Ge27  1  0.25476100  0.62774400  0.25476100  1
  Ge  Ge28  1  0.62774400  0.25476100  0.25476100  1
  Ge  Ge29  1  0.62774400  0.86273400  0.25476100  1
  Ge  Ge30  1  0.62774400  0.25476100  0.86273400  1
  Ge  Ge31  1  0.86273400  0.25476100  0.25476100  1
  Ge  Ge32  1  0.25476100  0.25476100  0.86273400  1
  Ge  Ge33  1  0.25476100  0.86273400  0.25476100  1
# generated using pymatgen
data_Ge
_symmetry_space_group_name_H-M   'P 1'
_cell_length_a   11.04494145
_cell_length_b   11.04494145
_cell_length_c   11.04494145
_cell_angle_alpha   60.00000000
_cell_angle_beta   60.00000000
_cell_angle_gamma   60.00000000
_symmetry_Int_Tables_number   1
_chemical_formula_structural   Ge
_chemical_formula_sum   Ge34
_cell_volume   952.74188120
_cell_formula_units_Z   34
loop_
 _symmetry_equiv_pos_site_id
 _symmetry_equiv_pos_as_xyz
  1  'x, y, z'
loop_
 _atom_site_type_symbol
 _atom_site_label
 _atom_site_symmetry_multiplicity
 _atom_site_fract_x
 _atom_site_fract_y
 _atom_site_fract_z
 _atom_site_occupancy
  Ge  Ge0  1  0.25000000  0.25000000  0.25000000  1
  Ge  Ge1  1  0.00000000  0.00000000  0.00000000  1
  Ge  Ge2  1  0.35372400  0.35372400  0.93882800  1
  Ge  Ge3  1  0.35372400  0.93882800  0.35372400  1
  Ge  Ge4  1  0.93882800  0.35372400  0.35372400  1
  Ge  Ge5  1  0.35372400  0.35372400  0.35372400  1
  Ge  Ge6  1  0.89627600  0.89627600  0.31117200  1
  Ge  Ge7  1  0.89627600  0.31117200  0.89627600  1
  Ge  Ge8  1  0.31117200  0.89627600  0.89627600  1
  Ge  Ge9  1  0.89627600  0.89627600  0.89627600  1
  Ge  Ge10  1  0.99523900  0.38726600  0.62225600  1
  Ge  Ge11  1  0.99523900  0.99523900  0.62225600  1
  Ge  Ge12  1  0.38726600  0.99523900  0.62225600  1
  Ge  Ge13  1  0.99523900  0.62225600  0.38726600  1
  Ge  Ge14  1  0.38726600  0.62225600  0.99523900  1
  Ge  Ge15  1  0.99523900  0.62225600  0.99523900  1
  Ge  Ge16  1  0.62225600  0.99523900  0.99523900  1
  Ge  Ge17  1  0.62225600  0.38726600  0.99523900  1
  Ge  Ge18  1  0.62225600  0.99523900  0.38726600  1
  Ge  Ge19  1  0.38726600  0.99523900  0.99523900  1
  Ge  Ge20  1  0.99523900  0.99523900  0.38726600  1
  Ge  Ge21  1  0.99523900  0.38726600  0.99523900  1
  Ge  Ge22  1  0.25476100  0.86273400  0.62774400  1
  Ge  Ge23  1  0.25476100  0.25476100  0.62774400  1
  Ge  Ge24  1  0.86273400  0.25476100  0.62774400  1
  Ge  Ge25  1  0.25476100  0.62774400  0.86273400  1
  Ge  Ge26  1  0.86273400  0.62774400  0.25476100  1
  Ge  Ge27  1  0.25476100  0.62774400  0.25476100  1
  Ge  Ge28  1  0.62774400  0.25476100  0.25476100  1
  Ge  Ge29  1  0.62774400  0.86273400  0.25476100  1
  Ge  Ge30  1  0.62774400  0.25476100  0.86273400  1
  Ge  Ge31  1  0.86273400  0.25476100  0.25476100  1
  Ge  Ge32  1  0.25476100  0.25476100  0.86273400  1
  Ge  Ge33  1  0.25476100  0.86273400  0.25476100  1
# generated using pymatgen
data_Ge
_symmetry_space_group_name_H-M   'P 1'
_cell_length_a   11.04494145
_cell_length_b   11.04494145
_cell_length_c   11.04494145
_cell_angle_alpha   60.00000000
_cell_angle_beta   60.00000000
_cell_angle_gamma   60.00000000
_symmetry_Int_Tables_number   1
_chemical_formula_structural   Ge
_chemical_formula_sum   Ge34
_cell_volume   952.74188120
_cell_formula_units_Z   34
loop_
 _symmetry_equiv_pos_site_id
 _symmetry_equiv_pos_as_xyz
  1  'x, y, z'
loop_
 _atom_site_type_symbol
 _atom_site_label
 _atom_site_symmetry_multiplicity
 _atom_site_fract_x
 _atom_site_fract_y
 _atom_site_fract_z
 _atom_site_occupancy
  Ge  Ge0  1  0.25000000  0.25000000  0.25000000  1
  Ge  Ge1  1  0.00000000  0.00000000  0.00000000  1
  Ge  Ge2  1  0.35372400  0.35372400  0.93882800  1
  Ge  Ge3  1  0.35372400  0.93882800  0.35372400  1
  Ge  Ge4  1  0.93882800  0.35372400  0.35372400  1
  Ge  Ge5  1  0.35372400  0.35372400  0.35372400  1
  Ge  Ge6  1  0.89627600  0.89627600  0.31117200  1
  Ge  Ge7  1  0.89627600  0.31117200  0.89627600  1
  Ge  Ge8  1  0.31117200  0.89627600  0.89627600  1
  Ge  Ge9  1  0.89627600  0.89627600  0.89627600  1
  Ge  Ge10  1  0.99523900  0.38726600  0.62225600  1
  Ge  Ge11  1  0.99523900  0.99523900  0.62225600  1
  Ge  Ge12  1  0.38726600  0.99523900  0.62225600  1
  Ge  Ge13  1  0.99523900  0.62225600  0.38726600  1
  Ge  Ge14  1  0.38726600  0.62225600  0.99523900  1
  Ge  Ge15  1  0.99523900  0.62225600  0.99523900  1
  Ge  Ge16  1  0.62225600  0.99523900  0.99523900  1
  Ge  Ge17  1  0.62225600  0.38726600  0.99523900  1
  Ge  Ge18  1  0.62225600  0.99523900  0.38726600  1
  Ge  Ge19  1  0.38726600  0.99523900  0.99523900  1
  Ge  Ge20  1  0.99523900  0.99523900  0.38726600  1
  Ge  Ge21  1  0.99523900  0.38726600  0.99523900  1
  Ge  Ge22  1  0.25476100  0.86273400  0.62774400  1
  Ge  Ge23  1  0.25476100  0.25476100  0.62774400  1
  Ge  Ge24  1  0.86273400  0.25476100  0.62774400  1
  Ge  Ge25  1  0.25476100  0.62774400  0.86273400  1
  Ge  Ge26  1  0.86273400  0.62774400  0.25476100  1
  Ge  Ge27  1  0.25476100  0.62774400  0.25476100  1
  Ge  Ge28  1  0.62774400  0.25476100  0.25476100  1
  Ge  Ge29  1  0.62774400  0.86273400  0.25476100  1
  Ge  Ge30  1  0.62774400  0.25476100  0.86273400  1
  Ge  Ge31  1  0.86273400  0.25476100  0.25476100  1
  Ge  Ge32  1  0.25476100  0.25476100  0.86273400  1
  Ge  Ge33  1  0.25476100  0.86273400  0.25476100  1
# generated using pymatgen
data_Ge
_symmetry_space_group_name_H-M   'P 1'
_cell_length_a   11.04494145
_cell_length_b   11.04494145
_cell_length_c   11.04494145
_cell_angle_alpha   60.00000000
_cell_angle_beta   60.00000000
_cell_angle_gamma   60.00000000
_symmetry_Int_Tables_number   1
_chemical_formula_structural   Ge
_chemical_formula_sum   Ge34
_cell_volume   952.74188120
_cell_formula_units_Z   34
loop_
 _symmetry_equiv_pos_site_id
 _symmetry_equiv_pos_as_xyz
  1  'x, y, z'
loop_
 _atom_site_type_symbol
 _atom_site_label
 _atom_site_symmetry_multiplicity
 _atom_site_fract_x
 _atom_site_fract_y
 _atom_site_fract_z
 _atom_site_occupancy
  Ge  Ge0  1  0.25000000  0.25000000  0.25000000  1
  Ge  Ge1  1  0.00000000  0.00000000  0.00000000  1
  Ge  Ge2  1  0.35372400  0.35372400  0.93882800  1
  Ge  Ge3  1  0.35372400  0.93882800  0.35372400  1
  Ge  Ge4  1  0.93882800  0.35372400  0.35372400  1
  Ge  Ge5  1  0.35372400  0.35372400  0.35372400  1
  Ge  Ge6  1  0.89627600  0.89627600  0.31117200  1
  Ge  Ge7  1  0.89627600  0.31117200  0.89627600  1
  Ge  Ge8  1  0.31117200  0.89627600  0.89627600  1
  Ge  Ge9  1  0.89627600  0.89627600  0.89627600  1
  Ge  Ge10  1  0.99523900  0.38726600  0.62225600  1
  Ge  Ge11  1  0.99523900  0.99523900  0.62225600  1
  Ge  Ge12  1  0.38726600  0.99523900  0.62225600  1
  Ge  Ge13  1  0.99523900  0.62225600  0.38726600  1
  Ge  Ge14  1  0.38726600  0.62225600  0.99523900  1
  Ge  Ge15  1  0.99523900  0.62225600  0.99523900  1
  Ge  Ge16  1  0.62225600  0.99523900  0.99523900  1
  Ge  Ge17  1  0.62225600  0.38726600  0.99523900  1
  Ge  Ge18  1  0.62225600  0.99523900  0.38726600  1
  Ge  Ge19  1  0.38726600  0.99523900  0.99523900  1
  Ge  Ge20  1  0.99523900  0.99523900  0.38726600  1
  Ge  Ge21  1  0.99523900  0.38726600  0.99523900  1
  Ge  Ge22  1  0.25476100  0.86273400  0.62774400  1
  Ge  Ge23  1  0.25476100  0.25476100  0.62774400  1
  Ge  Ge24  1  0.86273400  0.25476100  0.62774400  1
  Ge  Ge25  1  0.25476100  0.62774400  0.86273400  1
  Ge  Ge26  1  0.86273400  0.62774400  0.25476100  1
  Ge  Ge27  1  0.25476100  0.62774400  0.25476100  1
  Ge  Ge28  1  0.62774400  0.25476100  0.25476100  1
  Ge  Ge29  1  0.62774400  0.86273400  0.25476100  1
  Ge  Ge30  1  0.62774400  0.25476100  0.86273400  1
  Ge  Ge31  1  0.86273400  0.25476100  0.25476100  1
  Ge  Ge32  1  0.25476100  0.25476100  0.86273400  1
  Ge  Ge33  1  0.25476100  0.86273400  0.25476100  1
# generated using pymatgen
data_Ge
_symmetry_space_group_name_H-M   'P 1'
_cell_length_a   11.04494145
_cell_length_b   11.04494145
_cell_length_c   11.04494145
_cell_angle_alpha   60.00000000
_cell_angle_beta   60.00000000
_cell_angle_gamma   60.00000000
_symmetry_Int_Tables_number   1
_chemical_formula_structural   Ge
_chemical_formula_sum   Ge34
_cell_volume   952.74188120
_cell_formula_units_Z   34
loop_
 _symmetry_equiv_pos_site_id
 _symmetry_equiv_pos_as_xyz
  1  'x, y, z'
loop_
 _atom_site_type_symbol
 _atom_site_label
 _atom_site_symmetry_multiplicity
 _atom_site_fract_x
 _atom_site_fract_y
 _atom_site_fract_z
 _atom_site_occupancy
  Ge  Ge0  1  0.25000000  0.25000000  0.25000000  1
  Ge  Ge1  1  0.00000000  0.00000000  0.00000000  1
  Ge  Ge2  1  0.35372400  0.35372400  0.93882800  1
  Ge  Ge3  1  0.35372400  0.93882800  0.35372400  1
  Ge  Ge4  1  0.93882800  0.35372400  0.35372400  1
  Ge  Ge5  1  0.35372400  0.35372400  0.35372400  1
  Ge  Ge6  1  0.89627600  0.89627600  0.31117200  1
  Ge  Ge7  1  0.89627600  0.31117200  0.89627600  1
  Ge  Ge8  1  0.31117200  0.89627600  0.89627600  1
  Ge  Ge9  1  0.89627600  0.89627600  0.89627600  1
  Ge  Ge10  1  0.99523900  0.38726600  0.62225600  1
  Ge  Ge11  1  0.99523900  0.99523900  0.62225600  1
  Ge  Ge12  1  0.38726600  0.99523900  0.62225600  1
  Ge  Ge13  1  0.99523900  0.62225600  0.38726600  1
  Ge  Ge14  1  0.38726600  0.62225600  0.99523900  1
  Ge  Ge15  1  0.99523900  0.62225600  0.99523900  1
  Ge  Ge16  1  0.62225600  0.99523900  0.99523900  1
  Ge  Ge17  1  0.62225600  0.38726600  0.99523900  1
  Ge  Ge18  1  0.62225600  0.99523900  0.38726600  1
  Ge  Ge19  1  0.38726600  0.99523900  0.99523900  1
  Ge  Ge20  1  0.99523900  0.99523900  0.38726600  1
  Ge  Ge21  1  0.99523900  0.38726600  0.99523900  1
  Ge  Ge22  1  0.25476100  0.86273400  0.62774400  1
  Ge  Ge23  1  0.25476100  0.25476100  0.62774400  1
  Ge  Ge24  1  0.86273400  0.25476100  0.62774400  1
  Ge  Ge25  1  0.25476100  0.62774400  0.86273400  1
  Ge  Ge26  1  0.86273400  0.62774400  0.25476100  1
  Ge  Ge27  1  0.25476100  0.62774400  0.25476100  1
  Ge  Ge28  1  0.62774400  0.25476100  0.25476100  1
  Ge  Ge29  1  0.62774400  0.86273400  0.25476100  1
  Ge  Ge30  1  0.62774400  0.25476100  0.86273400  1
  Ge  Ge31  1  0.86273400  0.25476100  0.25476100  1
  Ge  Ge32  1  0.25476100  0.25476100  0.86273400  1
  Ge  Ge33  1  0.25476100  0.86273400  0.25476100  1
