# generated using pymatgen
data_Si
_symmetry_space_group_name_H-M   'P 1'
_cell_length_a   5.37502983
_cell_length_b   5.27127950
_cell_length_c   3.63069306
_cell_angle_alpha   71.60735078
_cell_angle_beta   68.52857676
_cell_angle_gamma   39.86407246
_symmetry_Int_Tables_number   1
_chemical_formula_structural   Si
_chemical_formula_sum   Si4
_cell_volume   61.25699716
_cell_formula_units_Z   4
loop_
 _symmetry_equiv_pos_site_id
 _symmetry_equiv_pos_as_xyz
  1  'x, y, z'
loop_
 _atom_site_type_symbol
 _atom_site_label
 _atom_site_symmetry_multiplicity
 _atom_site_fract_x
 _atom_site_fract_y
 _atom_site_fract_z
 _atom_site_occupancy
  Si  Si0  1  0.72864000  0.27136000  0.72864000  1
  Si  Si1  1  0.27136000  0.72864000  0.27136000  1
  Si  Si2  1  0.77868300  0.77868300  0.22131700  1
  Si  Si3  1  0.22131700  0.22131700  0.77868300  1
# generated using pymatgen
data_Si
_symmetry_space_group_name_H-M   'P 1'
_cell_length_a   5.37502983
_cell_length_b   5.27127950
_cell_length_c   3.63069306
_cell_angle_alpha   71.60735078
_cell_angle_beta   68.52857676
_cell_angle_gamma   39.86407246
_symmetry_Int_Tables_number   1
_chemical_formula_structural   Si
_chemical_formula_sum   Si4
_cell_volume   61.25699716
_cell_formula_units_Z   4
loop_
 _symmetry_equiv_pos_site_id
 _symmetry_equiv_pos_as_xyz
  1  'x, y, z'
loop_
 _atom_site_type_symbol
 _atom_site_label
 _atom_site_symmetry_multiplicity
 _atom_site_fract_x
 _atom_site_fract_y
 _atom_site_fract_z
 _atom_site_occupancy
  Si  Si0  1  0.72864000  0.27136000  0.72864000  1
  Si  Si1  1  0.27136000  0.72864000  0.27136000  1
  Si  Si2  1  0.77868300  0.77868300  0.22131700  1
  Si  Si3  1  0.22131700  0.22131700  0.77868300  1
# generated using pymatgen
data_Si
_symmetry_space_group_name_H-M   'P 1'
_cell_length_a   5.37502983
_cell_length_b   5.27127950
_cell_length_c   3.63069306
_cell_angle_alpha   71.60735078
_cell_angle_beta   68.52857676
_cell_angle_gamma   39.86407246
_symmetry_Int_Tables_number   1
_chemical_formula_structural   Si
_chemical_formula_sum   Si4
_cell_volume   61.25699716
_cell_formula_units_Z   4
loop_
 _symmetry_equiv_pos_site_id
 _symmetry_equiv_pos_as_xyz
  1  'x, y, z'
loop_
 _atom_site_type_symbol
 _atom_site_label
 _atom_site_symmetry_multiplicity
 _atom_site_fract_x
 _atom_site_fract_y
 _atom_site_fract_z
 _atom_site_occupancy
  Si  Si0  1  0.72864000  0.27136000  0.72864000  1
  Si  Si1  1  0.27136000  0.72864000  0.27136000  1
  Si  Si2  1  0.77868300  0.77868300  0.22131700  1
  Si  Si3  1  0.22131700  0.22131700  0.77868300  1
# generated using pymatgen
data_Si
_symmetry_space_group_name_H-M   'P 1'
_cell_length_a   5.37502983
_cell_length_b   5.27127950
_cell_length_c   3.63069306
_cell_angle_alpha   71.60735078
_cell_angle_beta   68.52857676
_cell_angle_gamma   39.86407246
_symmetry_Int_Tables_number   1
_chemical_formula_structural   Si
_chemical_formula_sum   Si4
_cell_volume   61.25699716
_cell_formula_units_Z   4
loop_
 _symmetry_equiv_pos_site_id
 _symmetry_equiv_pos_as_xyz
  1  'x, y, z'
loop_
 _atom_site_type_symbol
 _atom_site_label
 _atom_site_symmetry_multiplicity
 _atom_site_fract_x
 _atom_site_fract_y
 _atom_site_fract_z
 _atom_site_occupancy
  Si  Si0  1  0.72864000  0.27136000  0.72864000  1
  Si  Si1  1  0.27136000  0.72864000  0.27136000  1
  Si  Si2  1  0.77868300  0.77868300  0.22131700  1
  Si  Si3  1  0.22131700  0.22131700  0.77868300  1
# generated using pymatgen
data_Si
_symmetry_space_group_name_H-M   'P 1'
_cell_length_a   5.37502983
_cell_length_b   5.27127950
_cell_length_c   3.63069306
_cell_angle_alpha   71.60735078
_cell_angle_beta   68.52857676
_cell_angle_gamma   39.86407246
_symmetry_Int_Tables_number   1
_chemical_formula_structural   Si
_chemical_formula_sum   Si4
_cell_volume   61.25699716
_cell_formula_units_Z   4
loop_
 _symmetry_equiv_pos_site_id
 _symmetry_equiv_pos_as_xyz
  1  'x, y, z'
loop_
 _atom_site_type_symbol
 _atom_site_label
 _atom_site_symmetry_multiplicity
 _atom_site_fract_x
 _atom_site_fract_y
 _atom_site_fract_z
 _atom_site_occupancy
  Si  Si0  1  0.72864000  0.27136000  0.72864000  1
  Si  Si1  1  0.27136000  0.72864000  0.27136000  1
  Si  Si2  1  0.77868300  0.77868300  0.22131700  1
  Si  Si3  1  0.22131700  0.22131700  0.77868300  1
# generated using pymatgen
data_Si
_symmetry_space_group_name_H-M   'P 1'
_cell_length_a   5.37502983
_cell_length_b   5.27127950
_cell_length_c   3.63069306
_cell_angle_alpha   71.60735078
_cell_angle_beta   68.52857676
_cell_angle_gamma   39.86407246
_symmetry_Int_Tables_number   1
_chemical_formula_structural   Si
_chemical_formula_sum   Si4
_cell_volume   61.25699716
_cell_formula_units_Z   4
loop_
 _symmetry_equiv_pos_site_id
 _symmetry_equiv_pos_as_xyz
  1  'x, y, z'
loop_
 _atom_site_type_symbol
 _atom_site_label
 _atom_site_symmetry_multiplicity
 _atom_site_fract_x
 _atom_site_fract_y
 _atom_site_fract_z
 _atom_site_occupancy
  Si  Si0  1  0.72864000  0.27136000  0.72864000  1
  Si  Si1  1  0.27136000  0.72864000  0.27136000  1
  Si  Si2  1  0.77868300  0.77868300  0.22131700  1
  Si  Si3  1  0.22131700  0.22131700  0.77868300  1
