# generated using pymatgen
data_Se
_symmetry_space_group_name_H-M   'P 1'
_cell_length_a   4.73133781
_cell_length_b   8.05606245
_cell_length_c   2.74444993
_cell_angle_alpha   90.00000000
_cell_angle_beta   90.06284197
_cell_angle_gamma   90.00000000
_symmetry_Int_Tables_number   1
_chemical_formula_structural   Se
_chemical_formula_sum   Se4
_cell_volume   104.60726120
_cell_formula_units_Z   4
loop_
 _symmetry_equiv_pos_site_id
 _symmetry_equiv_pos_as_xyz
  1  'x, y, z'
loop_
 _atom_site_type_symbol
 _atom_site_label
 _atom_site_symmetry_multiplicity
 _atom_site_fract_x
 _atom_site_fract_y
 _atom_site_fract_z
 _atom_site_occupancy
  Se  Se0  1  0.93133075  0.51494213  0.76200794  1
  Se  Se1  1  0.06866925  0.01494213  0.23799206  1
  Se  Se2  1  0.56922865  0.71505787  0.76276510  1
  Se  Se3  1  0.43077135  0.21505787  0.23723490  1
# generated using pymatgen
data_Se
_symmetry_space_group_name_H-M   'P 1'
_cell_length_a   4.73133781
_cell_length_b   8.05606245
_cell_length_c   2.74444993
_cell_angle_alpha   90.00000000
_cell_angle_beta   90.06284197
_cell_angle_gamma   90.00000000
_symmetry_Int_Tables_number   1
_chemical_formula_structural   Se
_chemical_formula_sum   Se4
_cell_volume   104.60726120
_cell_formula_units_Z   4
loop_
 _symmetry_equiv_pos_site_id
 _symmetry_equiv_pos_as_xyz
  1  'x, y, z'
loop_
 _atom_site_type_symbol
 _atom_site_label
 _atom_site_symmetry_multiplicity
 _atom_site_fract_x
 _atom_site_fract_y
 _atom_site_fract_z
 _atom_site_occupancy
  Se  Se0  1  0.93133075  0.51494213  0.76200794  1
  Se  Se1  1  0.06866925  0.01494213  0.23799206  1
  Se  Se2  1  0.56922865  0.71505787  0.76276510  1
  Se  Se3  1  0.43077135  0.21505787  0.23723490  1
# generated using pymatgen
data_Se
_symmetry_space_group_name_H-M   'P 1'
_cell_length_a   4.73133781
_cell_length_b   8.05606245
_cell_length_c   2.74444993
_cell_angle_alpha   90.00000000
_cell_angle_beta   90.06284197
_cell_angle_gamma   90.00000000
_symmetry_Int_Tables_number   1
_chemical_formula_structural   Se
_chemical_formula_sum   Se4
_cell_volume   104.60726120
_cell_formula_units_Z   4
loop_
 _symmetry_equiv_pos_site_id
 _symmetry_equiv_pos_as_xyz
  1  'x, y, z'
loop_
 _atom_site_type_symbol
 _atom_site_label
 _atom_site_symmetry_multiplicity
 _atom_site_fract_x
 _atom_site_fract_y
 _atom_site_fract_z
 _atom_site_occupancy
  Se  Se0  1  0.93133075  0.51494213  0.76200794  1
  Se  Se1  1  0.06866925  0.01494213  0.23799206  1
  Se  Se2  1  0.56922865  0.71505787  0.76276510  1
  Se  Se3  1  0.43077135  0.21505787  0.23723490  1
# generated using pymatgen
data_Se
_symmetry_space_group_name_H-M   'P 1'
_cell_length_a   4.73133781
_cell_length_b   8.05606245
_cell_length_c   2.74444993
_cell_angle_alpha   90.00000000
_cell_angle_beta   90.06284197
_cell_angle_gamma   90.00000000
_symmetry_Int_Tables_number   1
_chemical_formula_structural   Se
_chemical_formula_sum   Se4
_cell_volume   104.60726120
_cell_formula_units_Z   4
loop_
 _symmetry_equiv_pos_site_id
 _symmetry_equiv_pos_as_xyz
  1  'x, y, z'
loop_
 _atom_site_type_symbol
 _atom_site_label
 _atom_site_symmetry_multiplicity
 _atom_site_fract_x
 _atom_site_fract_y
 _atom_site_fract_z
 _atom_site_occupancy
  Se  Se0  1  0.93133075  0.51494213  0.76200794  1
  Se  Se1  1  0.06866925  0.01494213  0.23799206  1
  Se  Se2  1  0.56922865  0.71505787  0.76276510  1
  Se  Se3  1  0.43077135  0.21505787  0.23723490  1
# generated using pymatgen
data_Se
_symmetry_space_group_name_H-M   'P 1'
_cell_length_a   4.73133781
_cell_length_b   8.05606245
_cell_length_c   2.74444993
_cell_angle_alpha   90.00000000
_cell_angle_beta   90.06284197
_cell_angle_gamma   90.00000000
_symmetry_Int_Tables_number   1
_chemical_formula_structural   Se
_chemical_formula_sum   Se4
_cell_volume   104.60726120
_cell_formula_units_Z   4
loop_
 _symmetry_equiv_pos_site_id
 _symmetry_equiv_pos_as_xyz
  1  'x, y, z'
loop_
 _atom_site_type_symbol
 _atom_site_label
 _atom_site_symmetry_multiplicity
 _atom_site_fract_x
 _atom_site_fract_y
 _atom_site_fract_z
 _atom_site_occupancy
  Se  Se0  1  0.93133075  0.51494213  0.76200794  1
  Se  Se1  1  0.06866925  0.01494213  0.23799206  1
  Se  Se2  1  0.56922865  0.71505787  0.76276510  1
  Se  Se3  1  0.43077135  0.21505787  0.23723490  1
