# generated using pymatgen
data_Ge
_symmetry_space_group_name_H-M   'P 1'
_cell_length_a   6.02665000
_cell_length_b   6.02665000
_cell_length_c   7.10586800
_cell_angle_alpha   90.00000000
_cell_angle_beta   90.00000000
_cell_angle_gamma   90.00000000
_symmetry_Int_Tables_number   1
_chemical_formula_structural   Ge
_chemical_formula_sum   Ge12
_cell_volume   258.08875133
_cell_formula_units_Z   12
loop_
 _symmetry_equiv_pos_site_id
 _symmetry_equiv_pos_as_xyz
  1  'x, y, z'
loop_
 _atom_site_type_symbol
 _atom_site_label
 _atom_site_symmetry_multiplicity
 _atom_site_fract_x
 _atom_site_fract_y
 _atom_site_fract_z
 _atom_site_occupancy
  Ge  Ge0  1  0.08764800  0.08764800  0.00000000  1
  Ge  Ge1  1  0.41235200  0.58764800  0.75000000  1
  Ge  Ge2  1  0.58764800  0.41235200  0.25000000  1
  Ge  Ge3  1  0.91235200  0.91235200  0.50000000  1
  Ge  Ge4  1  0.17139900  0.37039500  0.25322800  1
  Ge  Ge5  1  0.12960500  0.67139900  0.00322800  1
  Ge  Ge6  1  0.87039500  0.32860100  0.50322800  1
  Ge  Ge7  1  0.67139900  0.12960500  0.99677200  1
  Ge  Ge8  1  0.32860100  0.87039500  0.49677200  1
  Ge  Ge9  1  0.82860100  0.62960500  0.75322800  1
  Ge  Ge10  1  0.37039500  0.17139900  0.74677200  1
  Ge  Ge11  1  0.62960500  0.82860100  0.24677200  1
# generated using pymatgen
data_Ge
_symmetry_space_group_name_H-M   'P 1'
_cell_length_a   6.02665000
_cell_length_b   6.02665000
_cell_length_c   7.10586800
_cell_angle_alpha   90.00000000
_cell_angle_beta   90.00000000
_cell_angle_gamma   90.00000000
_symmetry_Int_Tables_number   1
_chemical_formula_structural   Ge
_chemical_formula_sum   Ge12
_cell_volume   258.08875133
_cell_formula_units_Z   12
loop_
 _symmetry_equiv_pos_site_id
 _symmetry_equiv_pos_as_xyz
  1  'x, y, z'
loop_
 _atom_site_type_symbol
 _atom_site_label
 _atom_site_symmetry_multiplicity
 _atom_site_fract_x
 _atom_site_fract_y
 _atom_site_fract_z
 _atom_site_occupancy
  Ge  Ge0  1  0.08764800  0.08764800  0.00000000  1
  Ge  Ge1  1  0.41235200  0.58764800  0.75000000  1
  Ge  Ge2  1  0.58764800  0.41235200  0.25000000  1
  Ge  Ge3  1  0.91235200  0.91235200  0.50000000  1
  Ge  Ge4  1  0.17139900  0.37039500  0.25322800  1
  Ge  Ge5  1  0.12960500  0.67139900  0.00322800  1
  Ge  Ge6  1  0.87039500  0.32860100  0.50322800  1
  Ge  Ge7  1  0.67139900  0.12960500  0.99677200  1
  Ge  Ge8  1  0.32860100  0.87039500  0.49677200  1
  Ge  Ge9  1  0.82860100  0.62960500  0.75322800  1
  Ge  Ge10  1  0.37039500  0.17139900  0.74677200  1
  Ge  Ge11  1  0.62960500  0.82860100  0.24677200  1
# generated using pymatgen
data_Ge
_symmetry_space_group_name_H-M   'P 1'
_cell_length_a   6.02665000
_cell_length_b   6.02665000
_cell_length_c   7.10586800
_cell_angle_alpha   90.00000000
_cell_angle_beta   90.00000000
_cell_angle_gamma   90.00000000
_symmetry_Int_Tables_number   1
_chemical_formula_structural   Ge
_chemical_formula_sum   Ge12
_cell_volume   258.08875133
_cell_formula_units_Z   12
loop_
 _symmetry_equiv_pos_site_id
 _symmetry_equiv_pos_as_xyz
  1  'x, y, z'
loop_
 _atom_site_type_symbol
 _atom_site_label
 _atom_site_symmetry_multiplicity
 _atom_site_fract_x
 _atom_site_fract_y
 _atom_site_fract_z
 _atom_site_occupancy
  Ge  Ge0  1  0.08764800  0.08764800  0.00000000  1
  Ge  Ge1  1  0.41235200  0.58764800  0.75000000  1
  Ge  Ge2  1  0.58764800  0.41235200  0.25000000  1
  Ge  Ge3  1  0.91235200  0.91235200  0.50000000  1
  Ge  Ge4  1  0.17139900  0.37039500  0.25322800  1
  Ge  Ge5  1  0.12960500  0.67139900  0.00322800  1
  Ge  Ge6  1  0.87039500  0.32860100  0.50322800  1
  Ge  Ge7  1  0.67139900  0.12960500  0.99677200  1
  Ge  Ge8  1  0.32860100  0.87039500  0.49677200  1
  Ge  Ge9  1  0.82860100  0.62960500  0.75322800  1
  Ge  Ge10  1  0.37039500  0.17139900  0.74677200  1
  Ge  Ge11  1  0.62960500  0.82860100  0.24677200  1
# generated using pymatgen
data_Ge
_symmetry_space_group_name_H-M   'P 1'
_cell_length_a   6.02665000
_cell_length_b   6.02665000
_cell_length_c   7.10586800
_cell_angle_alpha   90.00000000
_cell_angle_beta   90.00000000
_cell_angle_gamma   90.00000000
_symmetry_Int_Tables_number   1
_chemical_formula_structural   Ge
_chemical_formula_sum   Ge12
_cell_volume   258.08875133
_cell_formula_units_Z   12
loop_
 _symmetry_equiv_pos_site_id
 _symmetry_equiv_pos_as_xyz
  1  'x, y, z'
loop_
 _atom_site_type_symbol
 _atom_site_label
 _atom_site_symmetry_multiplicity
 _atom_site_fract_x
 _atom_site_fract_y
 _atom_site_fract_z
 _atom_site_occupancy
  Ge  Ge0  1  0.08764800  0.08764800  0.00000000  1
  Ge  Ge1  1  0.41235200  0.58764800  0.75000000  1
  Ge  Ge2  1  0.58764800  0.41235200  0.25000000  1
  Ge  Ge3  1  0.91235200  0.91235200  0.50000000  1
  Ge  Ge4  1  0.17139900  0.37039500  0.25322800  1
  Ge  Ge5  1  0.12960500  0.67139900  0.00322800  1
  Ge  Ge6  1  0.87039500  0.32860100  0.50322800  1
  Ge  Ge7  1  0.67139900  0.12960500  0.99677200  1
  Ge  Ge8  1  0.32860100  0.87039500  0.49677200  1
  Ge  Ge9  1  0.82860100  0.62960500  0.75322800  1
  Ge  Ge10  1  0.37039500  0.17139900  0.74677200  1
  Ge  Ge11  1  0.62960500  0.82860100  0.24677200  1
# generated using pymatgen
data_Ge
_symmetry_space_group_name_H-M   'P 1'
_cell_length_a   6.02665000
_cell_length_b   6.02665000
_cell_length_c   7.10586800
_cell_angle_alpha   90.00000000
_cell_angle_beta   90.00000000
_cell_angle_gamma   90.00000000
_symmetry_Int_Tables_number   1
_chemical_formula_structural   Ge
_chemical_formula_sum   Ge12
_cell_volume   258.08875133
_cell_formula_units_Z   12
loop_
 _symmetry_equiv_pos_site_id
 _symmetry_equiv_pos_as_xyz
  1  'x, y, z'
loop_
 _atom_site_type_symbol
 _atom_site_label
 _atom_site_symmetry_multiplicity
 _atom_site_fract_x
 _atom_site_fract_y
 _atom_site_fract_z
 _atom_site_occupancy
  Ge  Ge0  1  0.08764800  0.08764800  0.00000000  1
  Ge  Ge1  1  0.41235200  0.58764800  0.75000000  1
  Ge  Ge2  1  0.58764800  0.41235200  0.25000000  1
  Ge  Ge3  1  0.91235200  0.91235200  0.50000000  1
  Ge  Ge4  1  0.17139900  0.37039500  0.25322800  1
  Ge  Ge5  1  0.12960500  0.67139900  0.00322800  1
  Ge  Ge6  1  0.87039500  0.32860100  0.50322800  1
  Ge  Ge7  1  0.67139900  0.12960500  0.99677200  1
  Ge  Ge8  1  0.32860100  0.87039500  0.49677200  1
  Ge  Ge9  1  0.82860100  0.62960500  0.75322800  1
  Ge  Ge10  1  0.37039500  0.17139900  0.74677200  1
  Ge  Ge11  1  0.62960500  0.82860100  0.24677200  1
# generated using pymatgen
data_Ge
_symmetry_space_group_name_H-M   'P 1'
_cell_length_a   6.02665000
_cell_length_b   6.02665000
_cell_length_c   7.10586800
_cell_angle_alpha   90.00000000
_cell_angle_beta   90.00000000
_cell_angle_gamma   90.00000000
_symmetry_Int_Tables_number   1
_chemical_formula_structural   Ge
_chemical_formula_sum   Ge12
_cell_volume   258.08875133
_cell_formula_units_Z   12
loop_
 _symmetry_equiv_pos_site_id
 _symmetry_equiv_pos_as_xyz
  1  'x, y, z'
loop_
 _atom_site_type_symbol
 _atom_site_label
 _atom_site_symmetry_multiplicity
 _atom_site_fract_x
 _atom_site_fract_y
 _atom_site_fract_z
 _atom_site_occupancy
  Ge  Ge0  1  0.08764800  0.08764800  0.00000000  1
  Ge  Ge1  1  0.41235200  0.58764800  0.75000000  1
  Ge  Ge2  1  0.58764800  0.41235200  0.25000000  1
  Ge  Ge3  1  0.91235200  0.91235200  0.50000000  1
  Ge  Ge4  1  0.17139900  0.37039500  0.25322800  1
  Ge  Ge5  1  0.12960500  0.67139900  0.00322800  1
  Ge  Ge6  1  0.87039500  0.32860100  0.50322800  1
  Ge  Ge7  1  0.67139900  0.12960500  0.99677200  1
  Ge  Ge8  1  0.32860100  0.87039500  0.49677200  1
  Ge  Ge9  1  0.82860100  0.62960500  0.75322800  1
  Ge  Ge10  1  0.37039500  0.17139900  0.74677200  1
  Ge  Ge11  1  0.62960500  0.82860100  0.24677200  1
