# generated using pymatgen
data_Si
_symmetry_space_group_name_H-M   'P 1'
_cell_length_a   12.89176596
_cell_length_b   12.81884769
_cell_length_c   12.93019737
_cell_angle_alpha   106.27269514
_cell_angle_beta   71.41883148
_cell_angle_gamma   103.76042124
_symmetry_Int_Tables_number   1
_chemical_formula_structural   Si
_chemical_formula_sum   Si100
_cell_volume   1918.19224543
_cell_formula_units_Z   100
loop_
 _symmetry_equiv_pos_site_id
 _symmetry_equiv_pos_as_xyz
  1  'x, y, z'
loop_
 _atom_site_type_symbol
 _atom_site_label
 _atom_site_symmetry_multiplicity
 _atom_site_fract_x
 _atom_site_fract_y
 _atom_site_fract_z
 _atom_site_occupancy
  Si  Si0  1  0.88367216  0.34077908  0.16884092  1
  Si  Si1  1  0.05893169  0.68277319  0.61002357  1
  Si  Si2  1  0.12024604  0.46128018  0.72673095  1
  Si  Si3  1  0.85218179  0.45060208  0.35060514  1
  Si  Si4  1  0.90392497  0.93803044  0.99114893  1
  Si  Si5  1  0.48576999  0.94073777  0.24200919  1
  Si  Si6  1  0.36613887  0.67417087  0.80208492  1
  Si  Si7  1  0.29604740  0.71755752  0.13451895  1
  Si  Si8  1  0.56708087  0.60135385  0.50349866  1
  Si  Si9  1  0.59045323  0.87514291  0.92703014  1
  Si  Si10  1  0.95336359  0.97540246  0.75982529  1
  Si  Si11  1  0.63983974  0.15117216  0.65323547  1
  Si  Si12  1  0.35068652  0.09191437  0.63070925  1
  Si  Si13  1  0.72543844  0.80136089  0.64307447  1
  Si  Si14  1  0.52849516  0.42463289  0.72189401  1
  Si  Si15  1  0.43271614  0.70878823  0.36526230  1
  Si  Si16  1  0.71724107  0.32337994  0.11969353  1
  Si  Si17  1  0.04483998  0.52429022  0.33113433  1
  Si  Si18  1  0.04057059  0.00506167  0.57265557  1
  Si  Si19  1  0.12624809  0.79762056  0.15985747  1
  Si  Si20  1  0.60004544  0.63898927  0.97772020  1
  Si  Si21  1  0.08888058  0.05667167  0.30729415  1
  Si  Si22  1  0.08759775  0.09920320  0.05098635  1
  Si  Si23  1  0.33642513  0.31164598  0.20723934  1
  Si  Si24  1  0.61725550  0.58788997  0.66276593  1
  Si  Si25  1  0.05696460  0.57906078  0.90394005  1
  Si  Si26  1  0.36400737  0.55238187  0.10254512  1
  Si  Si27  1  0.42720556  0.43461367  0.91534512  1
  Si  Si28  1  0.42740137  0.86623636  0.08001511  1
  Si  Si29  1  0.90543167  0.77468920  0.73037660  1
  Si  Si30  1  0.83849681  0.72777772  0.90506631  1
  Si  Si31  1  0.86677596  0.08533583  0.93592169  1
  Si  Si32  1  0.53724123  0.06540087  0.51659800  1
  Si  Si33  1  0.65223367  0.88406769  0.22701170  1
  Si  Si34  1  0.99870465  0.18218596  0.57072498  1
  Si  Si35  1  0.93341556  0.75569569  0.16331299  1
  Si  Si36  1  0.02449008  0.22399793  0.32823892  1
  Si  Si37  1  0.39510509  0.81553999  0.70518448  1
  Si  Si38  1  0.31364694  0.13654660  0.37154377  1
  Si  Si39  1  0.15948737  0.98084220  0.11889989  1
  Si  Si40  1  0.92234855  0.93683083  0.27232843  1
  Si  Si41  1  0.06821547  0.71323637  0.42926097  1
  Si  Si42  1  0.30918343  0.94779078  0.38527564  1
  Si  Si43  1  0.09527309  0.01809332  0.86024634  1
  Si  Si44  1  0.78608064  0.98287056  0.43694326  1
  Si  Si45  1  0.59775548  0.88951312  0.42927043  1
  Si  Si46  1  0.16779372  0.48271759  0.97629573  1
  Si  Si47  1  0.15268847  0.85941621  0.86115082  1
  Si  Si48  1  0.84988203  0.94471582  0.57037153  1
  Si  Si49  1  0.33499220  0.95444399  0.86865076  1
  Si  Si50  1  0.27053646  0.74426846  0.33577710  1
  Si  Si51  1  0.76041955  0.08635667  0.71977577  1
  Si  Si52  1  0.46902100  0.28990224  0.41808507  1
  Si  Si53  1  0.96309005  0.42954884  0.01641801  1
  Si  Si54  1  0.76428901  0.30552332  0.44933985  1
  Si  Si55  1  0.08472369  0.41027836  0.42470867  1
  Si  Si56  1  0.53258693  0.61690860  0.17498693  1
  Si  Si57  1  0.50689754  0.42347716  0.15068043  1
  Si  Si58  1  0.69420520  0.82557295  0.02422823  1
  Si  Si59  1  0.99371887  0.75196759  0.96771207  1
  Si  Si60  1  0.83266958  0.41235214  0.72518115  1
  Si  Si61  1  0.38749557  0.56352054  0.46946263  1
  Si  Si62  1  0.58589752  0.39423463  0.28238497  1
  Si  Si63  1  0.16098729  0.31534711  0.82710714  1
  Si  Si64  1  0.57629633  0.11514687  0.20992134  1
  Si  Si65  1  0.28153817  0.28124806  0.91876939  1
  Si  Si66  1  0.82490804  0.00663517  0.18688175  1
  Si  Si67  1  0.61731882  0.05147237  0.88311984  1
  Si  Si68  1  0.41021852  0.38648764  0.60686982  1
  Si  Si69  1  0.34994639  0.11919124  0.81811843  1
  Si  Si70  1  0.53091925  0.17513475  0.84374485  1
  Si  Si71  1  0.68544515  0.33606044  0.64175346  1
  Si  Si72  1  0.21764654  0.67214775  0.96664293  1
  Si  Si73  1  0.53800681  0.69054617  0.83956334  1
  Si  Si74  1  0.20105085  0.27576871  0.10740744  1
  Si  Si75  1  0.01107538  0.49111296  0.62092520  1
  Si  Si76  1  0.75224650  0.63879015  0.19349020  1
  Si  Si77  1  0.17015429  0.46078347  0.15322772  1
  Si  Si78  1  0.72644488  0.50055005  0.90258466  1
  Si  Si79  1  0.81194175  0.64052442  0.60342055  1
  Si  Si80  1  0.93756633  0.18118152  0.18122769  1
  Si  Si81  1  0.86059551  0.72363184  0.44718218  1
  Si  Si82  1  0.21738080  0.94435270  0.57886808  1
  Si  Si83  1  0.56374747  0.36244820  0.95034393  1
  Si  Si84  1  0.69225557  0.13762340  0.03310679  1
  Si  Si85  1  0.27220358  0.39503362  0.40165368  1
  Si  Si86  1  0.21756678  0.79750832  0.66327730  1
  Si  Si87  1  0.96853929  0.25667820  0.88828590  1
  Si  Si88  1  0.79184631  0.48470072  0.04653823  1
  Si  Si89  1  0.86536092  0.17451165  0.46605792  1
  Si  Si90  1  0.60947746  0.18856874  0.39033637  1
  Si  Si91  1  0.19032239  0.25174436  0.50486933  1
  Si  Si92  1  0.88871686  0.25491598  0.74851145  1
  Si  Si93  1  0.57078331  0.79338361  0.56993147  1
  Si  Si94  1  0.72190818  0.55853627  0.34885256  1
  Si  Si95  1  0.12085601  0.90071307  0.36071270  1
  Si  Si96  1  0.41103746  0.15381445  0.18676684  1
  Si  Si97  1  0.31041557  0.53517485  0.65681324  1
  Si  Si98  1  0.35144475  0.00084957  0.05322396  1
  Si  Si99  1  0.26693381  0.24334180  0.64624174  1
# generated using pymatgen
data_Si
_symmetry_space_group_name_H-M   'P 1'
_cell_length_a   12.89176596
_cell_length_b   12.81884769
_cell_length_c   12.93019737
_cell_angle_alpha   106.27269514
_cell_angle_beta   71.41883148
_cell_angle_gamma   103.76042124
_symmetry_Int_Tables_number   1
_chemical_formula_structural   Si
_chemical_formula_sum   Si100
_cell_volume   1918.19224543
_cell_formula_units_Z   100
loop_
 _symmetry_equiv_pos_site_id
 _symmetry_equiv_pos_as_xyz
  1  'x, y, z'
loop_
 _atom_site_type_symbol
 _atom_site_label
 _atom_site_symmetry_multiplicity
 _atom_site_fract_x
 _atom_site_fract_y
 _atom_site_fract_z
 _atom_site_occupancy
  Si  Si0  1  0.88367216  0.34077908  0.16884092  1
  Si  Si1  1  0.05893169  0.68277319  0.61002357  1
  Si  Si2  1  0.12024604  0.46128018  0.72673095  1
  Si  Si3  1  0.85218179  0.45060208  0.35060514  1
  Si  Si4  1  0.90392497  0.93803044  0.99114893  1
  Si  Si5  1  0.48576999  0.94073777  0.24200919  1
  Si  Si6  1  0.36613887  0.67417087  0.80208492  1
  Si  Si7  1  0.29604740  0.71755752  0.13451895  1
  Si  Si8  1  0.56708087  0.60135385  0.50349866  1
  Si  Si9  1  0.59045323  0.87514291  0.92703014  1
  Si  Si10  1  0.95336359  0.97540246  0.75982529  1
  Si  Si11  1  0.63983974  0.15117216  0.65323547  1
  Si  Si12  1  0.35068652  0.09191437  0.63070925  1
  Si  Si13  1  0.72543844  0.80136089  0.64307447  1
  Si  Si14  1  0.52849516  0.42463289  0.72189401  1
  Si  Si15  1  0.43271614  0.70878823  0.36526230  1
  Si  Si16  1  0.71724107  0.32337994  0.11969353  1
  Si  Si17  1  0.04483998  0.52429022  0.33113433  1
  Si  Si18  1  0.04057059  0.00506167  0.57265557  1
  Si  Si19  1  0.12624809  0.79762056  0.15985747  1
  Si  Si20  1  0.60004544  0.63898927  0.97772020  1
  Si  Si21  1  0.08888058  0.05667167  0.30729415  1
  Si  Si22  1  0.08759775  0.09920320  0.05098635  1
  Si  Si23  1  0.33642513  0.31164598  0.20723934  1
  Si  Si24  1  0.61725550  0.58788997  0.66276593  1
  Si  Si25  1  0.05696460  0.57906078  0.90394005  1
  Si  Si26  1  0.36400737  0.55238187  0.10254512  1
  Si  Si27  1  0.42720556  0.43461367  0.91534512  1
  Si  Si28  1  0.42740137  0.86623636  0.08001511  1
  Si  Si29  1  0.90543167  0.77468920  0.73037660  1
  Si  Si30  1  0.83849681  0.72777772  0.90506631  1
  Si  Si31  1  0.86677596  0.08533583  0.93592169  1
  Si  Si32  1  0.53724123  0.06540087  0.51659800  1
  Si  Si33  1  0.65223367  0.88406769  0.22701170  1
  Si  Si34  1  0.99870465  0.18218596  0.57072498  1
  Si  Si35  1  0.93341556  0.75569569  0.16331299  1
  Si  Si36  1  0.02449008  0.22399793  0.32823892  1
  Si  Si37  1  0.39510509  0.81553999  0.70518448  1
  Si  Si38  1  0.31364694  0.13654660  0.37154377  1
  Si  Si39  1  0.15948737  0.98084220  0.11889989  1
  Si  Si40  1  0.92234855  0.93683083  0.27232843  1
  Si  Si41  1  0.06821547  0.71323637  0.42926097  1
  Si  Si42  1  0.30918343  0.94779078  0.38527564  1
  Si  Si43  1  0.09527309  0.01809332  0.86024634  1
  Si  Si44  1  0.78608064  0.98287056  0.43694326  1
  Si  Si45  1  0.59775548  0.88951312  0.42927043  1
  Si  Si46  1  0.16779372  0.48271759  0.97629573  1
  Si  Si47  1  0.15268847  0.85941621  0.86115082  1
  Si  Si48  1  0.84988203  0.94471582  0.57037153  1
  Si  Si49  1  0.33499220  0.95444399  0.86865076  1
  Si  Si50  1  0.27053646  0.74426846  0.33577710  1
  Si  Si51  1  0.76041955  0.08635667  0.71977577  1
  Si  Si52  1  0.46902100  0.28990224  0.41808507  1
  Si  Si53  1  0.96309005  0.42954884  0.01641801  1
  Si  Si54  1  0.76428901  0.30552332  0.44933985  1
  Si  Si55  1  0.08472369  0.41027836  0.42470867  1
  Si  Si56  1  0.53258693  0.61690860  0.17498693  1
  Si  Si57  1  0.50689754  0.42347716  0.15068043  1
  Si  Si58  1  0.69420520  0.82557295  0.02422823  1
  Si  Si59  1  0.99371887  0.75196759  0.96771207  1
  Si  Si60  1  0.83266958  0.41235214  0.72518115  1
  Si  Si61  1  0.38749557  0.56352054  0.46946263  1
  Si  Si62  1  0.58589752  0.39423463  0.28238497  1
  Si  Si63  1  0.16098729  0.31534711  0.82710714  1
  Si  Si64  1  0.57629633  0.11514687  0.20992134  1
  Si  Si65  1  0.28153817  0.28124806  0.91876939  1
  Si  Si66  1  0.82490804  0.00663517  0.18688175  1
  Si  Si67  1  0.61731882  0.05147237  0.88311984  1
  Si  Si68  1  0.41021852  0.38648764  0.60686982  1
  Si  Si69  1  0.34994639  0.11919124  0.81811843  1
  Si  Si70  1  0.53091925  0.17513475  0.84374485  1
  Si  Si71  1  0.68544515  0.33606044  0.64175346  1
  Si  Si72  1  0.21764654  0.67214775  0.96664293  1
  Si  Si73  1  0.53800681  0.69054617  0.83956334  1
  Si  Si74  1  0.20105085  0.27576871  0.10740744  1
  Si  Si75  1  0.01107538  0.49111296  0.62092520  1
  Si  Si76  1  0.75224650  0.63879015  0.19349020  1
  Si  Si77  1  0.17015429  0.46078347  0.15322772  1
  Si  Si78  1  0.72644488  0.50055005  0.90258466  1
  Si  Si79  1  0.81194175  0.64052442  0.60342055  1
  Si  Si80  1  0.93756633  0.18118152  0.18122769  1
  Si  Si81  1  0.86059551  0.72363184  0.44718218  1
  Si  Si82  1  0.21738080  0.94435270  0.57886808  1
  Si  Si83  1  0.56374747  0.36244820  0.95034393  1
  Si  Si84  1  0.69225557  0.13762340  0.03310679  1
  Si  Si85  1  0.27220358  0.39503362  0.40165368  1
  Si  Si86  1  0.21756678  0.79750832  0.66327730  1
  Si  Si87  1  0.96853929  0.25667820  0.88828590  1
  Si  Si88  1  0.79184631  0.48470072  0.04653823  1
  Si  Si89  1  0.86536092  0.17451165  0.46605792  1
  Si  Si90  1  0.60947746  0.18856874  0.39033637  1
  Si  Si91  1  0.19032239  0.25174436  0.50486933  1
  Si  Si92  1  0.88871686  0.25491598  0.74851145  1
  Si  Si93  1  0.57078331  0.79338361  0.56993147  1
  Si  Si94  1  0.72190818  0.55853627  0.34885256  1
  Si  Si95  1  0.12085601  0.90071307  0.36071270  1
  Si  Si96  1  0.41103746  0.15381445  0.18676684  1
  Si  Si97  1  0.31041557  0.53517485  0.65681324  1
  Si  Si98  1  0.35144475  0.00084957  0.05322396  1
  Si  Si99  1  0.26693381  0.24334180  0.64624174  1
# generated using pymatgen
data_Si
_symmetry_space_group_name_H-M   'P 1'
_cell_length_a   12.89176596
_cell_length_b   12.81884769
_cell_length_c   12.93019737
_cell_angle_alpha   106.27269514
_cell_angle_beta   71.41883148
_cell_angle_gamma   103.76042124
_symmetry_Int_Tables_number   1
_chemical_formula_structural   Si
_chemical_formula_sum   Si100
_cell_volume   1918.19224543
_cell_formula_units_Z   100
loop_
 _symmetry_equiv_pos_site_id
 _symmetry_equiv_pos_as_xyz
  1  'x, y, z'
loop_
 _atom_site_type_symbol
 _atom_site_label
 _atom_site_symmetry_multiplicity
 _atom_site_fract_x
 _atom_site_fract_y
 _atom_site_fract_z
 _atom_site_occupancy
  Si  Si0  1  0.88367216  0.34077908  0.16884092  1
  Si  Si1  1  0.05893169  0.68277319  0.61002357  1
  Si  Si2  1  0.12024604  0.46128018  0.72673095  1
  Si  Si3  1  0.85218179  0.45060208  0.35060514  1
  Si  Si4  1  0.90392497  0.93803044  0.99114893  1
  Si  Si5  1  0.48576999  0.94073777  0.24200919  1
  Si  Si6  1  0.36613887  0.67417087  0.80208492  1
  Si  Si7  1  0.29604740  0.71755752  0.13451895  1
  Si  Si8  1  0.56708087  0.60135385  0.50349866  1
  Si  Si9  1  0.59045323  0.87514291  0.92703014  1
  Si  Si10  1  0.95336359  0.97540246  0.75982529  1
  Si  Si11  1  0.63983974  0.15117216  0.65323547  1
  Si  Si12  1  0.35068652  0.09191437  0.63070925  1
  Si  Si13  1  0.72543844  0.80136089  0.64307447  1
  Si  Si14  1  0.52849516  0.42463289  0.72189401  1
  Si  Si15  1  0.43271614  0.70878823  0.36526230  1
  Si  Si16  1  0.71724107  0.32337994  0.11969353  1
  Si  Si17  1  0.04483998  0.52429022  0.33113433  1
  Si  Si18  1  0.04057059  0.00506167  0.57265557  1
  Si  Si19  1  0.12624809  0.79762056  0.15985747  1
  Si  Si20  1  0.60004544  0.63898927  0.97772020  1
  Si  Si21  1  0.08888058  0.05667167  0.30729415  1
  Si  Si22  1  0.08759775  0.09920320  0.05098635  1
  Si  Si23  1  0.33642513  0.31164598  0.20723934  1
  Si  Si24  1  0.61725550  0.58788997  0.66276593  1
  Si  Si25  1  0.05696460  0.57906078  0.90394005  1
  Si  Si26  1  0.36400737  0.55238187  0.10254512  1
  Si  Si27  1  0.42720556  0.43461367  0.91534512  1
  Si  Si28  1  0.42740137  0.86623636  0.08001511  1
  Si  Si29  1  0.90543167  0.77468920  0.73037660  1
  Si  Si30  1  0.83849681  0.72777772  0.90506631  1
  Si  Si31  1  0.86677596  0.08533583  0.93592169  1
  Si  Si32  1  0.53724123  0.06540087  0.51659800  1
  Si  Si33  1  0.65223367  0.88406769  0.22701170  1
  Si  Si34  1  0.99870465  0.18218596  0.57072498  1
  Si  Si35  1  0.93341556  0.75569569  0.16331299  1
  Si  Si36  1  0.02449008  0.22399793  0.32823892  1
  Si  Si37  1  0.39510509  0.81553999  0.70518448  1
  Si  Si38  1  0.31364694  0.13654660  0.37154377  1
  Si  Si39  1  0.15948737  0.98084220  0.11889989  1
  Si  Si40  1  0.92234855  0.93683083  0.27232843  1
  Si  Si41  1  0.06821547  0.71323637  0.42926097  1
  Si  Si42  1  0.30918343  0.94779078  0.38527564  1
  Si  Si43  1  0.09527309  0.01809332  0.86024634  1
  Si  Si44  1  0.78608064  0.98287056  0.43694326  1
  Si  Si45  1  0.59775548  0.88951312  0.42927043  1
  Si  Si46  1  0.16779372  0.48271759  0.97629573  1
  Si  Si47  1  0.15268847  0.85941621  0.86115082  1
  Si  Si48  1  0.84988203  0.94471582  0.57037153  1
  Si  Si49  1  0.33499220  0.95444399  0.86865076  1
  Si  Si50  1  0.27053646  0.74426846  0.33577710  1
  Si  Si51  1  0.76041955  0.08635667  0.71977577  1
  Si  Si52  1  0.46902100  0.28990224  0.41808507  1
  Si  Si53  1  0.96309005  0.42954884  0.01641801  1
  Si  Si54  1  0.76428901  0.30552332  0.44933985  1
  Si  Si55  1  0.08472369  0.41027836  0.42470867  1
  Si  Si56  1  0.53258693  0.61690860  0.17498693  1
  Si  Si57  1  0.50689754  0.42347716  0.15068043  1
  Si  Si58  1  0.69420520  0.82557295  0.02422823  1
  Si  Si59  1  0.99371887  0.75196759  0.96771207  1
  Si  Si60  1  0.83266958  0.41235214  0.72518115  1
  Si  Si61  1  0.38749557  0.56352054  0.46946263  1
  Si  Si62  1  0.58589752  0.39423463  0.28238497  1
  Si  Si63  1  0.16098729  0.31534711  0.82710714  1
  Si  Si64  1  0.57629633  0.11514687  0.20992134  1
  Si  Si65  1  0.28153817  0.28124806  0.91876939  1
  Si  Si66  1  0.82490804  0.00663517  0.18688175  1
  Si  Si67  1  0.61731882  0.05147237  0.88311984  1
  Si  Si68  1  0.41021852  0.38648764  0.60686982  1
  Si  Si69  1  0.34994639  0.11919124  0.81811843  1
  Si  Si70  1  0.53091925  0.17513475  0.84374485  1
  Si  Si71  1  0.68544515  0.33606044  0.64175346  1
  Si  Si72  1  0.21764654  0.67214775  0.96664293  1
  Si  Si73  1  0.53800681  0.69054617  0.83956334  1
  Si  Si74  1  0.20105085  0.27576871  0.10740744  1
  Si  Si75  1  0.01107538  0.49111296  0.62092520  1
  Si  Si76  1  0.75224650  0.63879015  0.19349020  1
  Si  Si77  1  0.17015429  0.46078347  0.15322772  1
  Si  Si78  1  0.72644488  0.50055005  0.90258466  1
  Si  Si79  1  0.81194175  0.64052442  0.60342055  1
  Si  Si80  1  0.93756633  0.18118152  0.18122769  1
  Si  Si81  1  0.86059551  0.72363184  0.44718218  1
  Si  Si82  1  0.21738080  0.94435270  0.57886808  1
  Si  Si83  1  0.56374747  0.36244820  0.95034393  1
  Si  Si84  1  0.69225557  0.13762340  0.03310679  1
  Si  Si85  1  0.27220358  0.39503362  0.40165368  1
  Si  Si86  1  0.21756678  0.79750832  0.66327730  1
  Si  Si87  1  0.96853929  0.25667820  0.88828590  1
  Si  Si88  1  0.79184631  0.48470072  0.04653823  1
  Si  Si89  1  0.86536092  0.17451165  0.46605792  1
  Si  Si90  1  0.60947746  0.18856874  0.39033637  1
  Si  Si91  1  0.19032239  0.25174436  0.50486933  1
  Si  Si92  1  0.88871686  0.25491598  0.74851145  1
  Si  Si93  1  0.57078331  0.79338361  0.56993147  1
  Si  Si94  1  0.72190818  0.55853627  0.34885256  1
  Si  Si95  1  0.12085601  0.90071307  0.36071270  1
  Si  Si96  1  0.41103746  0.15381445  0.18676684  1
  Si  Si97  1  0.31041557  0.53517485  0.65681324  1
  Si  Si98  1  0.35144475  0.00084957  0.05322396  1
  Si  Si99  1  0.26693381  0.24334180  0.64624174  1
# generated using pymatgen
data_Si
_symmetry_space_group_name_H-M   'P 1'
_cell_length_a   12.89176596
_cell_length_b   12.81884769
_cell_length_c   12.93019737
_cell_angle_alpha   106.27269514
_cell_angle_beta   71.41883148
_cell_angle_gamma   103.76042124
_symmetry_Int_Tables_number   1
_chemical_formula_structural   Si
_chemical_formula_sum   Si100
_cell_volume   1918.19224543
_cell_formula_units_Z   100
loop_
 _symmetry_equiv_pos_site_id
 _symmetry_equiv_pos_as_xyz
  1  'x, y, z'
loop_
 _atom_site_type_symbol
 _atom_site_label
 _atom_site_symmetry_multiplicity
 _atom_site_fract_x
 _atom_site_fract_y
 _atom_site_fract_z
 _atom_site_occupancy
  Si  Si0  1  0.88367216  0.34077908  0.16884092  1
  Si  Si1  1  0.05893169  0.68277319  0.61002357  1
  Si  Si2  1  0.12024604  0.46128018  0.72673095  1
  Si  Si3  1  0.85218179  0.45060208  0.35060514  1
  Si  Si4  1  0.90392497  0.93803044  0.99114893  1
  Si  Si5  1  0.48576999  0.94073777  0.24200919  1
  Si  Si6  1  0.36613887  0.67417087  0.80208492  1
  Si  Si7  1  0.29604740  0.71755752  0.13451895  1
  Si  Si8  1  0.56708087  0.60135385  0.50349866  1
  Si  Si9  1  0.59045323  0.87514291  0.92703014  1
  Si  Si10  1  0.95336359  0.97540246  0.75982529  1
  Si  Si11  1  0.63983974  0.15117216  0.65323547  1
  Si  Si12  1  0.35068652  0.09191437  0.63070925  1
  Si  Si13  1  0.72543844  0.80136089  0.64307447  1
  Si  Si14  1  0.52849516  0.42463289  0.72189401  1
  Si  Si15  1  0.43271614  0.70878823  0.36526230  1
  Si  Si16  1  0.71724107  0.32337994  0.11969353  1
  Si  Si17  1  0.04483998  0.52429022  0.33113433  1
  Si  Si18  1  0.04057059  0.00506167  0.57265557  1
  Si  Si19  1  0.12624809  0.79762056  0.15985747  1
  Si  Si20  1  0.60004544  0.63898927  0.97772020  1
  Si  Si21  1  0.08888058  0.05667167  0.30729415  1
  Si  Si22  1  0.08759775  0.09920320  0.05098635  1
  Si  Si23  1  0.33642513  0.31164598  0.20723934  1
  Si  Si24  1  0.61725550  0.58788997  0.66276593  1
  Si  Si25  1  0.05696460  0.57906078  0.90394005  1
  Si  Si26  1  0.36400737  0.55238187  0.10254512  1
  Si  Si27  1  0.42720556  0.43461367  0.91534512  1
  Si  Si28  1  0.42740137  0.86623636  0.08001511  1
  Si  Si29  1  0.90543167  0.77468920  0.73037660  1
  Si  Si30  1  0.83849681  0.72777772  0.90506631  1
  Si  Si31  1  0.86677596  0.08533583  0.93592169  1
  Si  Si32  1  0.53724123  0.06540087  0.51659800  1
  Si  Si33  1  0.65223367  0.88406769  0.22701170  1
  Si  Si34  1  0.99870465  0.18218596  0.57072498  1
  Si  Si35  1  0.93341556  0.75569569  0.16331299  1
  Si  Si36  1  0.02449008  0.22399793  0.32823892  1
  Si  Si37  1  0.39510509  0.81553999  0.70518448  1
  Si  Si38  1  0.31364694  0.13654660  0.37154377  1
  Si  Si39  1  0.15948737  0.98084220  0.11889989  1
  Si  Si40  1  0.92234855  0.93683083  0.27232843  1
  Si  Si41  1  0.06821547  0.71323637  0.42926097  1
  Si  Si42  1  0.30918343  0.94779078  0.38527564  1
  Si  Si43  1  0.09527309  0.01809332  0.86024634  1
  Si  Si44  1  0.78608064  0.98287056  0.43694326  1
  Si  Si45  1  0.59775548  0.88951312  0.42927043  1
  Si  Si46  1  0.16779372  0.48271759  0.97629573  1
  Si  Si47  1  0.15268847  0.85941621  0.86115082  1
  Si  Si48  1  0.84988203  0.94471582  0.57037153  1
  Si  Si49  1  0.33499220  0.95444399  0.86865076  1
  Si  Si50  1  0.27053646  0.74426846  0.33577710  1
  Si  Si51  1  0.76041955  0.08635667  0.71977577  1
  Si  Si52  1  0.46902100  0.28990224  0.41808507  1
  Si  Si53  1  0.96309005  0.42954884  0.01641801  1
  Si  Si54  1  0.76428901  0.30552332  0.44933985  1
  Si  Si55  1  0.08472369  0.41027836  0.42470867  1
  Si  Si56  1  0.53258693  0.61690860  0.17498693  1
  Si  Si57  1  0.50689754  0.42347716  0.15068043  1
  Si  Si58  1  0.69420520  0.82557295  0.02422823  1
  Si  Si59  1  0.99371887  0.75196759  0.96771207  1
  Si  Si60  1  0.83266958  0.41235214  0.72518115  1
  Si  Si61  1  0.38749557  0.56352054  0.46946263  1
  Si  Si62  1  0.58589752  0.39423463  0.28238497  1
  Si  Si63  1  0.16098729  0.31534711  0.82710714  1
  Si  Si64  1  0.57629633  0.11514687  0.20992134  1
  Si  Si65  1  0.28153817  0.28124806  0.91876939  1
  Si  Si66  1  0.82490804  0.00663517  0.18688175  1
  Si  Si67  1  0.61731882  0.05147237  0.88311984  1
  Si  Si68  1  0.41021852  0.38648764  0.60686982  1
  Si  Si69  1  0.34994639  0.11919124  0.81811843  1
  Si  Si70  1  0.53091925  0.17513475  0.84374485  1
  Si  Si71  1  0.68544515  0.33606044  0.64175346  1
  Si  Si72  1  0.21764654  0.67214775  0.96664293  1
  Si  Si73  1  0.53800681  0.69054617  0.83956334  1
  Si  Si74  1  0.20105085  0.27576871  0.10740744  1
  Si  Si75  1  0.01107538  0.49111296  0.62092520  1
  Si  Si76  1  0.75224650  0.63879015  0.19349020  1
  Si  Si77  1  0.17015429  0.46078347  0.15322772  1
  Si  Si78  1  0.72644488  0.50055005  0.90258466  1
  Si  Si79  1  0.81194175  0.64052442  0.60342055  1
  Si  Si80  1  0.93756633  0.18118152  0.18122769  1
  Si  Si81  1  0.86059551  0.72363184  0.44718218  1
  Si  Si82  1  0.21738080  0.94435270  0.57886808  1
  Si  Si83  1  0.56374747  0.36244820  0.95034393  1
  Si  Si84  1  0.69225557  0.13762340  0.03310679  1
  Si  Si85  1  0.27220358  0.39503362  0.40165368  1
  Si  Si86  1  0.21756678  0.79750832  0.66327730  1
  Si  Si87  1  0.96853929  0.25667820  0.88828590  1
  Si  Si88  1  0.79184631  0.48470072  0.04653823  1
  Si  Si89  1  0.86536092  0.17451165  0.46605792  1
  Si  Si90  1  0.60947746  0.18856874  0.39033637  1
  Si  Si91  1  0.19032239  0.25174436  0.50486933  1
  Si  Si92  1  0.88871686  0.25491598  0.74851145  1
  Si  Si93  1  0.57078331  0.79338361  0.56993147  1
  Si  Si94  1  0.72190818  0.55853627  0.34885256  1
  Si  Si95  1  0.12085601  0.90071307  0.36071270  1
  Si  Si96  1  0.41103746  0.15381445  0.18676684  1
  Si  Si97  1  0.31041557  0.53517485  0.65681324  1
  Si  Si98  1  0.35144475  0.00084957  0.05322396  1
  Si  Si99  1  0.26693381  0.24334180  0.64624174  1
# generated using pymatgen
data_Si
_symmetry_space_group_name_H-M   'P 1'
_cell_length_a   12.89176596
_cell_length_b   12.81884769
_cell_length_c   12.93019737
_cell_angle_alpha   106.27269514
_cell_angle_beta   71.41883148
_cell_angle_gamma   103.76042124
_symmetry_Int_Tables_number   1
_chemical_formula_structural   Si
_chemical_formula_sum   Si100
_cell_volume   1918.19224543
_cell_formula_units_Z   100
loop_
 _symmetry_equiv_pos_site_id
 _symmetry_equiv_pos_as_xyz
  1  'x, y, z'
loop_
 _atom_site_type_symbol
 _atom_site_label
 _atom_site_symmetry_multiplicity
 _atom_site_fract_x
 _atom_site_fract_y
 _atom_site_fract_z
 _atom_site_occupancy
  Si  Si0  1  0.88367216  0.34077908  0.16884092  1
  Si  Si1  1  0.05893169  0.68277319  0.61002357  1
  Si  Si2  1  0.12024604  0.46128018  0.72673095  1
  Si  Si3  1  0.85218179  0.45060208  0.35060514  1
  Si  Si4  1  0.90392497  0.93803044  0.99114893  1
  Si  Si5  1  0.48576999  0.94073777  0.24200919  1
  Si  Si6  1  0.36613887  0.67417087  0.80208492  1
  Si  Si7  1  0.29604740  0.71755752  0.13451895  1
  Si  Si8  1  0.56708087  0.60135385  0.50349866  1
  Si  Si9  1  0.59045323  0.87514291  0.92703014  1
  Si  Si10  1  0.95336359  0.97540246  0.75982529  1
  Si  Si11  1  0.63983974  0.15117216  0.65323547  1
  Si  Si12  1  0.35068652  0.09191437  0.63070925  1
  Si  Si13  1  0.72543844  0.80136089  0.64307447  1
  Si  Si14  1  0.52849516  0.42463289  0.72189401  1
  Si  Si15  1  0.43271614  0.70878823  0.36526230  1
  Si  Si16  1  0.71724107  0.32337994  0.11969353  1
  Si  Si17  1  0.04483998  0.52429022  0.33113433  1
  Si  Si18  1  0.04057059  0.00506167  0.57265557  1
  Si  Si19  1  0.12624809  0.79762056  0.15985747  1
  Si  Si20  1  0.60004544  0.63898927  0.97772020  1
  Si  Si21  1  0.08888058  0.05667167  0.30729415  1
  Si  Si22  1  0.08759775  0.09920320  0.05098635  1
  Si  Si23  1  0.33642513  0.31164598  0.20723934  1
  Si  Si24  1  0.61725550  0.58788997  0.66276593  1
  Si  Si25  1  0.05696460  0.57906078  0.90394005  1
  Si  Si26  1  0.36400737  0.55238187  0.10254512  1
  Si  Si27  1  0.42720556  0.43461367  0.91534512  1
  Si  Si28  1  0.42740137  0.86623636  0.08001511  1
  Si  Si29  1  0.90543167  0.77468920  0.73037660  1
  Si  Si30  1  0.83849681  0.72777772  0.90506631  1
  Si  Si31  1  0.86677596  0.08533583  0.93592169  1
  Si  Si32  1  0.53724123  0.06540087  0.51659800  1
  Si  Si33  1  0.65223367  0.88406769  0.22701170  1
  Si  Si34  1  0.99870465  0.18218596  0.57072498  1
  Si  Si35  1  0.93341556  0.75569569  0.16331299  1
  Si  Si36  1  0.02449008  0.22399793  0.32823892  1
  Si  Si37  1  0.39510509  0.81553999  0.70518448  1
  Si  Si38  1  0.31364694  0.13654660  0.37154377  1
  Si  Si39  1  0.15948737  0.98084220  0.11889989  1
  Si  Si40  1  0.92234855  0.93683083  0.27232843  1
  Si  Si41  1  0.06821547  0.71323637  0.42926097  1
  Si  Si42  1  0.30918343  0.94779078  0.38527564  1
  Si  Si43  1  0.09527309  0.01809332  0.86024634  1
  Si  Si44  1  0.78608064  0.98287056  0.43694326  1
  Si  Si45  1  0.59775548  0.88951312  0.42927043  1
  Si  Si46  1  0.16779372  0.48271759  0.97629573  1
  Si  Si47  1  0.15268847  0.85941621  0.86115082  1
  Si  Si48  1  0.84988203  0.94471582  0.57037153  1
  Si  Si49  1  0.33499220  0.95444399  0.86865076  1
  Si  Si50  1  0.27053646  0.74426846  0.33577710  1
  Si  Si51  1  0.76041955  0.08635667  0.71977577  1
  Si  Si52  1  0.46902100  0.28990224  0.41808507  1
  Si  Si53  1  0.96309005  0.42954884  0.01641801  1
  Si  Si54  1  0.76428901  0.30552332  0.44933985  1
  Si  Si55  1  0.08472369  0.41027836  0.42470867  1
  Si  Si56  1  0.53258693  0.61690860  0.17498693  1
  Si  Si57  1  0.50689754  0.42347716  0.15068043  1
  Si  Si58  1  0.69420520  0.82557295  0.02422823  1
  Si  Si59  1  0.99371887  0.75196759  0.96771207  1
  Si  Si60  1  0.83266958  0.41235214  0.72518115  1
  Si  Si61  1  0.38749557  0.56352054  0.46946263  1
  Si  Si62  1  0.58589752  0.39423463  0.28238497  1
  Si  Si63  1  0.16098729  0.31534711  0.82710714  1
  Si  Si64  1  0.57629633  0.11514687  0.20992134  1
  Si  Si65  1  0.28153817  0.28124806  0.91876939  1
  Si  Si66  1  0.82490804  0.00663517  0.18688175  1
  Si  Si67  1  0.61731882  0.05147237  0.88311984  1
  Si  Si68  1  0.41021852  0.38648764  0.60686982  1
  Si  Si69  1  0.34994639  0.11919124  0.81811843  1
  Si  Si70  1  0.53091925  0.17513475  0.84374485  1
  Si  Si71  1  0.68544515  0.33606044  0.64175346  1
  Si  Si72  1  0.21764654  0.67214775  0.96664293  1
  Si  Si73  1  0.53800681  0.69054617  0.83956334  1
  Si  Si74  1  0.20105085  0.27576871  0.10740744  1
  Si  Si75  1  0.01107538  0.49111296  0.62092520  1
  Si  Si76  1  0.75224650  0.63879015  0.19349020  1
  Si  Si77  1  0.17015429  0.46078347  0.15322772  1
  Si  Si78  1  0.72644488  0.50055005  0.90258466  1
  Si  Si79  1  0.81194175  0.64052442  0.60342055  1
  Si  Si80  1  0.93756633  0.18118152  0.18122769  1
  Si  Si81  1  0.86059551  0.72363184  0.44718218  1
  Si  Si82  1  0.21738080  0.94435270  0.57886808  1
  Si  Si83  1  0.56374747  0.36244820  0.95034393  1
  Si  Si84  1  0.69225557  0.13762340  0.03310679  1
  Si  Si85  1  0.27220358  0.39503362  0.40165368  1
  Si  Si86  1  0.21756678  0.79750832  0.66327730  1
  Si  Si87  1  0.96853929  0.25667820  0.88828590  1
  Si  Si88  1  0.79184631  0.48470072  0.04653823  1
  Si  Si89  1  0.86536092  0.17451165  0.46605792  1
  Si  Si90  1  0.60947746  0.18856874  0.39033637  1
  Si  Si91  1  0.19032239  0.25174436  0.50486933  1
  Si  Si92  1  0.88871686  0.25491598  0.74851145  1
  Si  Si93  1  0.57078331  0.79338361  0.56993147  1
  Si  Si94  1  0.72190818  0.55853627  0.34885256  1
  Si  Si95  1  0.12085601  0.90071307  0.36071270  1
  Si  Si96  1  0.41103746  0.15381445  0.18676684  1
  Si  Si97  1  0.31041557  0.53517485  0.65681324  1
  Si  Si98  1  0.35144475  0.00084957  0.05322396  1
  Si  Si99  1  0.26693381  0.24334180  0.64624174  1
# generated using pymatgen
data_Si
_symmetry_space_group_name_H-M   'P 1'
_cell_length_a   12.89176596
_cell_length_b   12.81884769
_cell_length_c   12.93019737
_cell_angle_alpha   106.27269514
_cell_angle_beta   71.41883148
_cell_angle_gamma   103.76042124
_symmetry_Int_Tables_number   1
_chemical_formula_structural   Si
_chemical_formula_sum   Si100
_cell_volume   1918.19224543
_cell_formula_units_Z   100
loop_
 _symmetry_equiv_pos_site_id
 _symmetry_equiv_pos_as_xyz
  1  'x, y, z'
loop_
 _atom_site_type_symbol
 _atom_site_label
 _atom_site_symmetry_multiplicity
 _atom_site_fract_x
 _atom_site_fract_y
 _atom_site_fract_z
 _atom_site_occupancy
  Si  Si0  1  0.88367216  0.34077908  0.16884092  1
  Si  Si1  1  0.05893169  0.68277319  0.61002357  1
  Si  Si2  1  0.12024604  0.46128018  0.72673095  1
  Si  Si3  1  0.85218179  0.45060208  0.35060514  1
  Si  Si4  1  0.90392497  0.93803044  0.99114893  1
  Si  Si5  1  0.48576999  0.94073777  0.24200919  1
  Si  Si6  1  0.36613887  0.67417087  0.80208492  1
  Si  Si7  1  0.29604740  0.71755752  0.13451895  1
  Si  Si8  1  0.56708087  0.60135385  0.50349866  1
  Si  Si9  1  0.59045323  0.87514291  0.92703014  1
  Si  Si10  1  0.95336359  0.97540246  0.75982529  1
  Si  Si11  1  0.63983974  0.15117216  0.65323547  1
  Si  Si12  1  0.35068652  0.09191437  0.63070925  1
  Si  Si13  1  0.72543844  0.80136089  0.64307447  1
  Si  Si14  1  0.52849516  0.42463289  0.72189401  1
  Si  Si15  1  0.43271614  0.70878823  0.36526230  1
  Si  Si16  1  0.71724107  0.32337994  0.11969353  1
  Si  Si17  1  0.04483998  0.52429022  0.33113433  1
  Si  Si18  1  0.04057059  0.00506167  0.57265557  1
  Si  Si19  1  0.12624809  0.79762056  0.15985747  1
  Si  Si20  1  0.60004544  0.63898927  0.97772020  1
  Si  Si21  1  0.08888058  0.05667167  0.30729415  1
  Si  Si22  1  0.08759775  0.09920320  0.05098635  1
  Si  Si23  1  0.33642513  0.31164598  0.20723934  1
  Si  Si24  1  0.61725550  0.58788997  0.66276593  1
  Si  Si25  1  0.05696460  0.57906078  0.90394005  1
  Si  Si26  1  0.36400737  0.55238187  0.10254512  1
  Si  Si27  1  0.42720556  0.43461367  0.91534512  1
  Si  Si28  1  0.42740137  0.86623636  0.08001511  1
  Si  Si29  1  0.90543167  0.77468920  0.73037660  1
  Si  Si30  1  0.83849681  0.72777772  0.90506631  1
  Si  Si31  1  0.86677596  0.08533583  0.93592169  1
  Si  Si32  1  0.53724123  0.06540087  0.51659800  1
  Si  Si33  1  0.65223367  0.88406769  0.22701170  1
  Si  Si34  1  0.99870465  0.18218596  0.57072498  1
  Si  Si35  1  0.93341556  0.75569569  0.16331299  1
  Si  Si36  1  0.02449008  0.22399793  0.32823892  1
  Si  Si37  1  0.39510509  0.81553999  0.70518448  1
  Si  Si38  1  0.31364694  0.13654660  0.37154377  1
  Si  Si39  1  0.15948737  0.98084220  0.11889989  1
  Si  Si40  1  0.92234855  0.93683083  0.27232843  1
  Si  Si41  1  0.06821547  0.71323637  0.42926097  1
  Si  Si42  1  0.30918343  0.94779078  0.38527564  1
  Si  Si43  1  0.09527309  0.01809332  0.86024634  1
  Si  Si44  1  0.78608064  0.98287056  0.43694326  1
  Si  Si45  1  0.59775548  0.88951312  0.42927043  1
  Si  Si46  1  0.16779372  0.48271759  0.97629573  1
  Si  Si47  1  0.15268847  0.85941621  0.86115082  1
  Si  Si48  1  0.84988203  0.94471582  0.57037153  1
  Si  Si49  1  0.33499220  0.95444399  0.86865076  1
  Si  Si50  1  0.27053646  0.74426846  0.33577710  1
  Si  Si51  1  0.76041955  0.08635667  0.71977577  1
  Si  Si52  1  0.46902100  0.28990224  0.41808507  1
  Si  Si53  1  0.96309005  0.42954884  0.01641801  1
  Si  Si54  1  0.76428901  0.30552332  0.44933985  1
  Si  Si55  1  0.08472369  0.41027836  0.42470867  1
  Si  Si56  1  0.53258693  0.61690860  0.17498693  1
  Si  Si57  1  0.50689754  0.42347716  0.15068043  1
  Si  Si58  1  0.69420520  0.82557295  0.02422823  1
  Si  Si59  1  0.99371887  0.75196759  0.96771207  1
  Si  Si60  1  0.83266958  0.41235214  0.72518115  1
  Si  Si61  1  0.38749557  0.56352054  0.46946263  1
  Si  Si62  1  0.58589752  0.39423463  0.28238497  1
  Si  Si63  1  0.16098729  0.31534711  0.82710714  1
  Si  Si64  1  0.57629633  0.11514687  0.20992134  1
  Si  Si65  1  0.28153817  0.28124806  0.91876939  1
  Si  Si66  1  0.82490804  0.00663517  0.18688175  1
  Si  Si67  1  0.61731882  0.05147237  0.88311984  1
  Si  Si68  1  0.41021852  0.38648764  0.60686982  1
  Si  Si69  1  0.34994639  0.11919124  0.81811843  1
  Si  Si70  1  0.53091925  0.17513475  0.84374485  1
  Si  Si71  1  0.68544515  0.33606044  0.64175346  1
  Si  Si72  1  0.21764654  0.67214775  0.96664293  1
  Si  Si73  1  0.53800681  0.69054617  0.83956334  1
  Si  Si74  1  0.20105085  0.27576871  0.10740744  1
  Si  Si75  1  0.01107538  0.49111296  0.62092520  1
  Si  Si76  1  0.75224650  0.63879015  0.19349020  1
  Si  Si77  1  0.17015429  0.46078347  0.15322772  1
  Si  Si78  1  0.72644488  0.50055005  0.90258466  1
  Si  Si79  1  0.81194175  0.64052442  0.60342055  1
  Si  Si80  1  0.93756633  0.18118152  0.18122769  1
  Si  Si81  1  0.86059551  0.72363184  0.44718218  1
  Si  Si82  1  0.21738080  0.94435270  0.57886808  1
  Si  Si83  1  0.56374747  0.36244820  0.95034393  1
  Si  Si84  1  0.69225557  0.13762340  0.03310679  1
  Si  Si85  1  0.27220358  0.39503362  0.40165368  1
  Si  Si86  1  0.21756678  0.79750832  0.66327730  1
  Si  Si87  1  0.96853929  0.25667820  0.88828590  1
  Si  Si88  1  0.79184631  0.48470072  0.04653823  1
  Si  Si89  1  0.86536092  0.17451165  0.46605792  1
  Si  Si90  1  0.60947746  0.18856874  0.39033637  1
  Si  Si91  1  0.19032239  0.25174436  0.50486933  1
  Si  Si92  1  0.88871686  0.25491598  0.74851145  1
  Si  Si93  1  0.57078331  0.79338361  0.56993147  1
  Si  Si94  1  0.72190818  0.55853627  0.34885256  1
  Si  Si95  1  0.12085601  0.90071307  0.36071270  1
  Si  Si96  1  0.41103746  0.15381445  0.18676684  1
  Si  Si97  1  0.31041557  0.53517485  0.65681324  1
  Si  Si98  1  0.35144475  0.00084957  0.05322396  1
  Si  Si99  1  0.26693381  0.24334180  0.64624174  1
