# generated using pymatgen
data_Si
_symmetry_space_group_name_H-M   'P 1'
_cell_length_a   10.22145998
_cell_length_b   10.22145998
_cell_length_c   10.38879300
_cell_angle_alpha   90.00000000
_cell_angle_beta   90.00000000
_cell_angle_gamma   119.99999987
_symmetry_Int_Tables_number   1
_chemical_formula_structural   Si
_chemical_formula_sum   Si40
_cell_volume   939.98644363
_cell_formula_units_Z   40
loop_
 _symmetry_equiv_pos_site_id
 _symmetry_equiv_pos_as_xyz
  1  'x, y, z'
loop_
 _atom_site_type_symbol
 _atom_site_label
 _atom_site_symmetry_multiplicity
 _atom_site_fract_x
 _atom_site_fract_y
 _atom_site_fract_z
 _atom_site_occupancy
  Si  Si0  1  0.79060800  0.58121600  0.68759500  1
  Si  Si1  1  0.20939200  0.41878400  0.68759500  1
  Si  Si2  1  0.41878400  0.20939200  0.31240500  1
  Si  Si3  1  0.58121600  0.79060800  0.31240500  1
  Si  Si4  1  0.20939200  0.41878400  0.31240500  1
  Si  Si5  1  0.79060800  0.58121600  0.31240500  1
  Si  Si6  1  0.58121600  0.79060800  0.68759500  1
  Si  Si7  1  0.41878400  0.20939200  0.68759500  1
  Si  Si8  1  0.61984500  0.00000000  0.81269700  1
  Si  Si9  1  0.38015500  0.00000000  0.81269700  1
  Si  Si10  1  0.00000000  0.38015500  0.18730300  1
  Si  Si11  1  0.00000000  0.61984500  0.18730300  1
  Si  Si12  1  0.38015500  0.00000000  0.18730300  1
  Si  Si13  1  0.61984500  0.00000000  0.18730300  1
  Si  Si14  1  0.00000000  0.61984500  0.81269700  1
  Si  Si15  1  0.00000000  0.38015500  0.81269700  1
  Si  Si16  1  0.61984500  0.61984500  0.81269700  1
  Si  Si17  1  0.38015500  0.38015500  0.81269700  1
  Si  Si18  1  0.38015500  0.38015500  0.18730300  1
  Si  Si19  1  0.61984500  0.61984500  0.18730300  1
  Si  Si20  1  0.86768300  0.13231700  0.50000000  1
  Si  Si21  1  0.13231700  0.86768300  0.50000000  1
  Si  Si22  1  0.79060800  0.20939200  0.68759500  1
  Si  Si23  1  0.20939200  0.79060800  0.68759500  1
  Si  Si24  1  0.79060800  0.20939200  0.31240500  1
  Si  Si25  1  0.20939200  0.79060800  0.31240500  1
  Si  Si26  1  0.66666700  0.33333300  0.61225600  1
  Si  Si27  1  0.33333300  0.66666700  0.61225600  1
  Si  Si28  1  0.66666700  0.33333300  0.38774400  1
  Si  Si29  1  0.33333300  0.66666700  0.38774400  1
  Si  Si30  1  0.86768300  0.73536500  0.50000000  1
  Si  Si31  1  0.13231700  0.26463500  0.50000000  1
  Si  Si32  1  0.26463500  0.13231700  0.50000000  1
  Si  Si33  1  0.73536500  0.86768300  0.50000000  1
  Si  Si34  1  0.75779000  0.75779000  0.00000000  1
  Si  Si35  1  0.24221000  0.24221000  0.00000000  1
  Si  Si36  1  0.75779000  0.00000000  0.00000000  1
  Si  Si37  1  0.24221000  0.00000000  0.00000000  1
  Si  Si38  1  0.00000000  0.24221000  0.00000000  1
  Si  Si39  1  0.00000000  0.75779000  0.00000000  1
# generated using pymatgen
data_Si
_symmetry_space_group_name_H-M   'P 1'
_cell_length_a   10.22145998
_cell_length_b   10.22145998
_cell_length_c   10.38879300
_cell_angle_alpha   90.00000000
_cell_angle_beta   90.00000000
_cell_angle_gamma   119.99999987
_symmetry_Int_Tables_number   1
_chemical_formula_structural   Si
_chemical_formula_sum   Si40
_cell_volume   939.98644363
_cell_formula_units_Z   40
loop_
 _symmetry_equiv_pos_site_id
 _symmetry_equiv_pos_as_xyz
  1  'x, y, z'
loop_
 _atom_site_type_symbol
 _atom_site_label
 _atom_site_symmetry_multiplicity
 _atom_site_fract_x
 _atom_site_fract_y
 _atom_site_fract_z
 _atom_site_occupancy
  Si  Si0  1  0.79060800  0.58121600  0.68759500  1
  Si  Si1  1  0.20939200  0.41878400  0.68759500  1
  Si  Si2  1  0.41878400  0.20939200  0.31240500  1
  Si  Si3  1  0.58121600  0.79060800  0.31240500  1
  Si  Si4  1  0.20939200  0.41878400  0.31240500  1
  Si  Si5  1  0.79060800  0.58121600  0.31240500  1
  Si  Si6  1  0.58121600  0.79060800  0.68759500  1
  Si  Si7  1  0.41878400  0.20939200  0.68759500  1
  Si  Si8  1  0.61984500  0.00000000  0.81269700  1
  Si  Si9  1  0.38015500  0.00000000  0.81269700  1
  Si  Si10  1  0.00000000  0.38015500  0.18730300  1
  Si  Si11  1  0.00000000  0.61984500  0.18730300  1
  Si  Si12  1  0.38015500  0.00000000  0.18730300  1
  Si  Si13  1  0.61984500  0.00000000  0.18730300  1
  Si  Si14  1  0.00000000  0.61984500  0.81269700  1
  Si  Si15  1  0.00000000  0.38015500  0.81269700  1
  Si  Si16  1  0.61984500  0.61984500  0.81269700  1
  Si  Si17  1  0.38015500  0.38015500  0.81269700  1
  Si  Si18  1  0.38015500  0.38015500  0.18730300  1
  Si  Si19  1  0.61984500  0.61984500  0.18730300  1
  Si  Si20  1  0.86768300  0.13231700  0.50000000  1
  Si  Si21  1  0.13231700  0.86768300  0.50000000  1
  Si  Si22  1  0.79060800  0.20939200  0.68759500  1
  Si  Si23  1  0.20939200  0.79060800  0.68759500  1
  Si  Si24  1  0.79060800  0.20939200  0.31240500  1
  Si  Si25  1  0.20939200  0.79060800  0.31240500  1
  Si  Si26  1  0.66666700  0.33333300  0.61225600  1
  Si  Si27  1  0.33333300  0.66666700  0.61225600  1
  Si  Si28  1  0.66666700  0.33333300  0.38774400  1
  Si  Si29  1  0.33333300  0.66666700  0.38774400  1
  Si  Si30  1  0.86768300  0.73536500  0.50000000  1
  Si  Si31  1  0.13231700  0.26463500  0.50000000  1
  Si  Si32  1  0.26463500  0.13231700  0.50000000  1
  Si  Si33  1  0.73536500  0.86768300  0.50000000  1
  Si  Si34  1  0.75779000  0.75779000  0.00000000  1
  Si  Si35  1  0.24221000  0.24221000  0.00000000  1
  Si  Si36  1  0.75779000  0.00000000  0.00000000  1
  Si  Si37  1  0.24221000  0.00000000  0.00000000  1
  Si  Si38  1  0.00000000  0.24221000  0.00000000  1
  Si  Si39  1  0.00000000  0.75779000  0.00000000  1
# generated using pymatgen
data_Si
_symmetry_space_group_name_H-M   'P 1'
_cell_length_a   10.22145998
_cell_length_b   10.22145998
_cell_length_c   10.38879300
_cell_angle_alpha   90.00000000
_cell_angle_beta   90.00000000
_cell_angle_gamma   119.99999987
_symmetry_Int_Tables_number   1
_chemical_formula_structural   Si
_chemical_formula_sum   Si40
_cell_volume   939.98644363
_cell_formula_units_Z   40
loop_
 _symmetry_equiv_pos_site_id
 _symmetry_equiv_pos_as_xyz
  1  'x, y, z'
loop_
 _atom_site_type_symbol
 _atom_site_label
 _atom_site_symmetry_multiplicity
 _atom_site_fract_x
 _atom_site_fract_y
 _atom_site_fract_z
 _atom_site_occupancy
  Si  Si0  1  0.79060800  0.58121600  0.68759500  1
  Si  Si1  1  0.20939200  0.41878400  0.68759500  1
  Si  Si2  1  0.41878400  0.20939200  0.31240500  1
  Si  Si3  1  0.58121600  0.79060800  0.31240500  1
  Si  Si4  1  0.20939200  0.41878400  0.31240500  1
  Si  Si5  1  0.79060800  0.58121600  0.31240500  1
  Si  Si6  1  0.58121600  0.79060800  0.68759500  1
  Si  Si7  1  0.41878400  0.20939200  0.68759500  1
  Si  Si8  1  0.61984500  0.00000000  0.81269700  1
  Si  Si9  1  0.38015500  0.00000000  0.81269700  1
  Si  Si10  1  0.00000000  0.38015500  0.18730300  1
  Si  Si11  1  0.00000000  0.61984500  0.18730300  1
  Si  Si12  1  0.38015500  0.00000000  0.18730300  1
  Si  Si13  1  0.61984500  0.00000000  0.18730300  1
  Si  Si14  1  0.00000000  0.61984500  0.81269700  1
  Si  Si15  1  0.00000000  0.38015500  0.81269700  1
  Si  Si16  1  0.61984500  0.61984500  0.81269700  1
  Si  Si17  1  0.38015500  0.38015500  0.81269700  1
  Si  Si18  1  0.38015500  0.38015500  0.18730300  1
  Si  Si19  1  0.61984500  0.61984500  0.18730300  1
  Si  Si20  1  0.86768300  0.13231700  0.50000000  1
  Si  Si21  1  0.13231700  0.86768300  0.50000000  1
  Si  Si22  1  0.79060800  0.20939200  0.68759500  1
  Si  Si23  1  0.20939200  0.79060800  0.68759500  1
  Si  Si24  1  0.79060800  0.20939200  0.31240500  1
  Si  Si25  1  0.20939200  0.79060800  0.31240500  1
  Si  Si26  1  0.66666700  0.33333300  0.61225600  1
  Si  Si27  1  0.33333300  0.66666700  0.61225600  1
  Si  Si28  1  0.66666700  0.33333300  0.38774400  1
  Si  Si29  1  0.33333300  0.66666700  0.38774400  1
  Si  Si30  1  0.86768300  0.73536500  0.50000000  1
  Si  Si31  1  0.13231700  0.26463500  0.50000000  1
  Si  Si32  1  0.26463500  0.13231700  0.50000000  1
  Si  Si33  1  0.73536500  0.86768300  0.50000000  1
  Si  Si34  1  0.75779000  0.75779000  0.00000000  1
  Si  Si35  1  0.24221000  0.24221000  0.00000000  1
  Si  Si36  1  0.75779000  0.00000000  0.00000000  1
  Si  Si37  1  0.24221000  0.00000000  0.00000000  1
  Si  Si38  1  0.00000000  0.24221000  0.00000000  1
  Si  Si39  1  0.00000000  0.75779000  0.00000000  1
# generated using pymatgen
data_Si
_symmetry_space_group_name_H-M   'P 1'
_cell_length_a   10.22145998
_cell_length_b   10.22145998
_cell_length_c   10.38879300
_cell_angle_alpha   90.00000000
_cell_angle_beta   90.00000000
_cell_angle_gamma   119.99999987
_symmetry_Int_Tables_number   1
_chemical_formula_structural   Si
_chemical_formula_sum   Si40
_cell_volume   939.98644363
_cell_formula_units_Z   40
loop_
 _symmetry_equiv_pos_site_id
 _symmetry_equiv_pos_as_xyz
  1  'x, y, z'
loop_
 _atom_site_type_symbol
 _atom_site_label
 _atom_site_symmetry_multiplicity
 _atom_site_fract_x
 _atom_site_fract_y
 _atom_site_fract_z
 _atom_site_occupancy
  Si  Si0  1  0.79060800  0.58121600  0.68759500  1
  Si  Si1  1  0.20939200  0.41878400  0.68759500  1
  Si  Si2  1  0.41878400  0.20939200  0.31240500  1
  Si  Si3  1  0.58121600  0.79060800  0.31240500  1
  Si  Si4  1  0.20939200  0.41878400  0.31240500  1
  Si  Si5  1  0.79060800  0.58121600  0.31240500  1
  Si  Si6  1  0.58121600  0.79060800  0.68759500  1
  Si  Si7  1  0.41878400  0.20939200  0.68759500  1
  Si  Si8  1  0.61984500  0.00000000  0.81269700  1
  Si  Si9  1  0.38015500  0.00000000  0.81269700  1
  Si  Si10  1  0.00000000  0.38015500  0.18730300  1
  Si  Si11  1  0.00000000  0.61984500  0.18730300  1
  Si  Si12  1  0.38015500  0.00000000  0.18730300  1
  Si  Si13  1  0.61984500  0.00000000  0.18730300  1
  Si  Si14  1  0.00000000  0.61984500  0.81269700  1
  Si  Si15  1  0.00000000  0.38015500  0.81269700  1
  Si  Si16  1  0.61984500  0.61984500  0.81269700  1
  Si  Si17  1  0.38015500  0.38015500  0.81269700  1
  Si  Si18  1  0.38015500  0.38015500  0.18730300  1
  Si  Si19  1  0.61984500  0.61984500  0.18730300  1
  Si  Si20  1  0.86768300  0.13231700  0.50000000  1
  Si  Si21  1  0.13231700  0.86768300  0.50000000  1
  Si  Si22  1  0.79060800  0.20939200  0.68759500  1
  Si  Si23  1  0.20939200  0.79060800  0.68759500  1
  Si  Si24  1  0.79060800  0.20939200  0.31240500  1
  Si  Si25  1  0.20939200  0.79060800  0.31240500  1
  Si  Si26  1  0.66666700  0.33333300  0.61225600  1
  Si  Si27  1  0.33333300  0.66666700  0.61225600  1
  Si  Si28  1  0.66666700  0.33333300  0.38774400  1
  Si  Si29  1  0.33333300  0.66666700  0.38774400  1
  Si  Si30  1  0.86768300  0.73536500  0.50000000  1
  Si  Si31  1  0.13231700  0.26463500  0.50000000  1
  Si  Si32  1  0.26463500  0.13231700  0.50000000  1
  Si  Si33  1  0.73536500  0.86768300  0.50000000  1
  Si  Si34  1  0.75779000  0.75779000  0.00000000  1
  Si  Si35  1  0.24221000  0.24221000  0.00000000  1
  Si  Si36  1  0.75779000  0.00000000  0.00000000  1
  Si  Si37  1  0.24221000  0.00000000  0.00000000  1
  Si  Si38  1  0.00000000  0.24221000  0.00000000  1
  Si  Si39  1  0.00000000  0.75779000  0.00000000  1
# generated using pymatgen
data_Si
_symmetry_space_group_name_H-M   'P 1'
_cell_length_a   10.22145998
_cell_length_b   10.22145998
_cell_length_c   10.38879300
_cell_angle_alpha   90.00000000
_cell_angle_beta   90.00000000
_cell_angle_gamma   119.99999987
_symmetry_Int_Tables_number   1
_chemical_formula_structural   Si
_chemical_formula_sum   Si40
_cell_volume   939.98644363
_cell_formula_units_Z   40
loop_
 _symmetry_equiv_pos_site_id
 _symmetry_equiv_pos_as_xyz
  1  'x, y, z'
loop_
 _atom_site_type_symbol
 _atom_site_label
 _atom_site_symmetry_multiplicity
 _atom_site_fract_x
 _atom_site_fract_y
 _atom_site_fract_z
 _atom_site_occupancy
  Si  Si0  1  0.79060800  0.58121600  0.68759500  1
  Si  Si1  1  0.20939200  0.41878400  0.68759500  1
  Si  Si2  1  0.41878400  0.20939200  0.31240500  1
  Si  Si3  1  0.58121600  0.79060800  0.31240500  1
  Si  Si4  1  0.20939200  0.41878400  0.31240500  1
  Si  Si5  1  0.79060800  0.58121600  0.31240500  1
  Si  Si6  1  0.58121600  0.79060800  0.68759500  1
  Si  Si7  1  0.41878400  0.20939200  0.68759500  1
  Si  Si8  1  0.61984500  0.00000000  0.81269700  1
  Si  Si9  1  0.38015500  0.00000000  0.81269700  1
  Si  Si10  1  0.00000000  0.38015500  0.18730300  1
  Si  Si11  1  0.00000000  0.61984500  0.18730300  1
  Si  Si12  1  0.38015500  0.00000000  0.18730300  1
  Si  Si13  1  0.61984500  0.00000000  0.18730300  1
  Si  Si14  1  0.00000000  0.61984500  0.81269700  1
  Si  Si15  1  0.00000000  0.38015500  0.81269700  1
  Si  Si16  1  0.61984500  0.61984500  0.81269700  1
  Si  Si17  1  0.38015500  0.38015500  0.81269700  1
  Si  Si18  1  0.38015500  0.38015500  0.18730300  1
  Si  Si19  1  0.61984500  0.61984500  0.18730300  1
  Si  Si20  1  0.86768300  0.13231700  0.50000000  1
  Si  Si21  1  0.13231700  0.86768300  0.50000000  1
  Si  Si22  1  0.79060800  0.20939200  0.68759500  1
  Si  Si23  1  0.20939200  0.79060800  0.68759500  1
  Si  Si24  1  0.79060800  0.20939200  0.31240500  1
  Si  Si25  1  0.20939200  0.79060800  0.31240500  1
  Si  Si26  1  0.66666700  0.33333300  0.61225600  1
  Si  Si27  1  0.33333300  0.66666700  0.61225600  1
  Si  Si28  1  0.66666700  0.33333300  0.38774400  1
  Si  Si29  1  0.33333300  0.66666700  0.38774400  1
  Si  Si30  1  0.86768300  0.73536500  0.50000000  1
  Si  Si31  1  0.13231700  0.26463500  0.50000000  1
  Si  Si32  1  0.26463500  0.13231700  0.50000000  1
  Si  Si33  1  0.73536500  0.86768300  0.50000000  1
  Si  Si34  1  0.75779000  0.75779000  0.00000000  1
  Si  Si35  1  0.24221000  0.24221000  0.00000000  1
  Si  Si36  1  0.75779000  0.00000000  0.00000000  1
  Si  Si37  1  0.24221000  0.00000000  0.00000000  1
  Si  Si38  1  0.00000000  0.24221000  0.00000000  1
  Si  Si39  1  0.00000000  0.75779000  0.00000000  1
# generated using pymatgen
data_Si
_symmetry_space_group_name_H-M   'P 1'
_cell_length_a   10.22145998
_cell_length_b   10.22145998
_cell_length_c   10.38879300
_cell_angle_alpha   90.00000000
_cell_angle_beta   90.00000000
_cell_angle_gamma   119.99999987
_symmetry_Int_Tables_number   1
_chemical_formula_structural   Si
_chemical_formula_sum   Si40
_cell_volume   939.98644363
_cell_formula_units_Z   40
loop_
 _symmetry_equiv_pos_site_id
 _symmetry_equiv_pos_as_xyz
  1  'x, y, z'
loop_
 _atom_site_type_symbol
 _atom_site_label
 _atom_site_symmetry_multiplicity
 _atom_site_fract_x
 _atom_site_fract_y
 _atom_site_fract_z
 _atom_site_occupancy
  Si  Si0  1  0.79060800  0.58121600  0.68759500  1
  Si  Si1  1  0.20939200  0.41878400  0.68759500  1
  Si  Si2  1  0.41878400  0.20939200  0.31240500  1
  Si  Si3  1  0.58121600  0.79060800  0.31240500  1
  Si  Si4  1  0.20939200  0.41878400  0.31240500  1
  Si  Si5  1  0.79060800  0.58121600  0.31240500  1
  Si  Si6  1  0.58121600  0.79060800  0.68759500  1
  Si  Si7  1  0.41878400  0.20939200  0.68759500  1
  Si  Si8  1  0.61984500  0.00000000  0.81269700  1
  Si  Si9  1  0.38015500  0.00000000  0.81269700  1
  Si  Si10  1  0.00000000  0.38015500  0.18730300  1
  Si  Si11  1  0.00000000  0.61984500  0.18730300  1
  Si  Si12  1  0.38015500  0.00000000  0.18730300  1
  Si  Si13  1  0.61984500  0.00000000  0.18730300  1
  Si  Si14  1  0.00000000  0.61984500  0.81269700  1
  Si  Si15  1  0.00000000  0.38015500  0.81269700  1
  Si  Si16  1  0.61984500  0.61984500  0.81269700  1
  Si  Si17  1  0.38015500  0.38015500  0.81269700  1
  Si  Si18  1  0.38015500  0.38015500  0.18730300  1
  Si  Si19  1  0.61984500  0.61984500  0.18730300  1
  Si  Si20  1  0.86768300  0.13231700  0.50000000  1
  Si  Si21  1  0.13231700  0.86768300  0.50000000  1
  Si  Si22  1  0.79060800  0.20939200  0.68759500  1
  Si  Si23  1  0.20939200  0.79060800  0.68759500  1
  Si  Si24  1  0.79060800  0.20939200  0.31240500  1
  Si  Si25  1  0.20939200  0.79060800  0.31240500  1
  Si  Si26  1  0.66666700  0.33333300  0.61225600  1
  Si  Si27  1  0.33333300  0.66666700  0.61225600  1
  Si  Si28  1  0.66666700  0.33333300  0.38774400  1
  Si  Si29  1  0.33333300  0.66666700  0.38774400  1
  Si  Si30  1  0.86768300  0.73536500  0.50000000  1
  Si  Si31  1  0.13231700  0.26463500  0.50000000  1
  Si  Si32  1  0.26463500  0.13231700  0.50000000  1
  Si  Si33  1  0.73536500  0.86768300  0.50000000  1
  Si  Si34  1  0.75779000  0.75779000  0.00000000  1
  Si  Si35  1  0.24221000  0.24221000  0.00000000  1
  Si  Si36  1  0.75779000  0.00000000  0.00000000  1
  Si  Si37  1  0.24221000  0.00000000  0.00000000  1
  Si  Si38  1  0.00000000  0.24221000  0.00000000  1
  Si  Si39  1  0.00000000  0.75779000  0.00000000  1
