# generated using pymatgen
data_Si
_symmetry_space_group_name_H-M   'P 1'
_cell_length_a   10.81705566
_cell_length_b   10.81705566
_cell_length_c   10.81705566
_cell_angle_alpha   109.47122063
_cell_angle_beta   109.47122063
_cell_angle_gamma   109.47122063
_symmetry_Int_Tables_number   1
_chemical_formula_structural   Si
_chemical_formula_sum   Si41
_cell_volume   974.32826853
_cell_formula_units_Z   41
loop_
 _symmetry_equiv_pos_site_id
 _symmetry_equiv_pos_as_xyz
  1  'x, y, z'
loop_
 _atom_site_type_symbol
 _atom_site_label
 _atom_site_symmetry_multiplicity
 _atom_site_fract_x
 _atom_site_fract_y
 _atom_site_fract_z
 _atom_site_occupancy
  Si  Si0  1  0.78656700  0.39179900  0.13260800  1
  Si  Si1  1  0.39476800  0.74080800  0.60820100  1
  Si  Si2  1  0.65396000  0.86739200  0.25919200  1
  Si  Si3  1  0.65396000  0.25919200  0.86739200  1
  Si  Si4  1  0.78656700  0.13260800  0.39179900  1
  Si  Si5  1  0.39476800  0.60820100  0.74080800  1
  Si  Si6  1  0.25919200  0.65396000  0.86739200  1
  Si  Si7  1  0.13260800  0.78656700  0.39179900  1
  Si  Si8  1  0.60820100  0.39476800  0.74080800  1
  Si  Si9  1  0.39179900  0.78656700  0.13260800  1
  Si  Si10  1  0.74080800  0.39476800  0.60820100  1
  Si  Si11  1  0.86739200  0.65396000  0.25919200  1
  Si  Si12  1  0.74080800  0.60820100  0.39476800  1
  Si  Si13  1  0.86739200  0.25919200  0.65396000  1
  Si  Si14  1  0.39179900  0.13260800  0.78656700  1
  Si  Si15  1  0.60820100  0.74080800  0.39476800  1
  Si  Si16  1  0.25919200  0.86739200  0.65396000  1
  Si  Si17  1  0.13260800  0.39179900  0.78656700  1
  Si  Si18  1  0.21343300  0.34604000  0.60523200  1
  Si  Si19  1  0.60523200  0.21343300  0.34604000  1
  Si  Si20  1  0.34604000  0.60523200  0.21343300  1
  Si  Si21  1  0.34604000  0.21343300  0.60523200  1
  Si  Si22  1  0.21343300  0.60523200  0.34604000  1
  Si  Si23  1  0.60523200  0.34604000  0.21343300  1
  Si  Si24  1  0.00000000  0.00000000  0.21737600  1
  Si  Si25  1  0.00000000  0.21737600  0.00000000  1
  Si  Si26  1  0.78262400  0.78262400  0.78262400  1
  Si  Si27  1  0.21737600  0.00000000  0.00000000  1
  Si  Si28  1  0.00000000  0.00000000  0.00000000  1
  Si  Si29  1  0.00000000  0.35928300  0.22321600  1
  Si  Si30  1  0.64071700  0.86393300  0.64071700  1
  Si  Si31  1  0.77678400  0.77678400  0.13606700  1
  Si  Si32  1  0.77678400  0.13606700  0.77678400  1
  Si  Si33  1  0.00000000  0.22321600  0.35928300  1
  Si  Si34  1  0.64071700  0.64071700  0.86393300  1
  Si  Si35  1  0.13606700  0.77678400  0.77678400  1
  Si  Si36  1  0.22321600  0.00000000  0.35928300  1
  Si  Si37  1  0.35928300  0.00000000  0.22321600  1
  Si  Si38  1  0.86393300  0.64071700  0.64071700  1
  Si  Si39  1  0.35928300  0.22321600  0.00000000  1
  Si  Si40  1  0.22321600  0.35928300  0.00000000  1
# generated using pymatgen
data_Si
_symmetry_space_group_name_H-M   'P 1'
_cell_length_a   10.81705566
_cell_length_b   10.81705566
_cell_length_c   10.81705566
_cell_angle_alpha   109.47122063
_cell_angle_beta   109.47122063
_cell_angle_gamma   109.47122063
_symmetry_Int_Tables_number   1
_chemical_formula_structural   Si
_chemical_formula_sum   Si41
_cell_volume   974.32826853
_cell_formula_units_Z   41
loop_
 _symmetry_equiv_pos_site_id
 _symmetry_equiv_pos_as_xyz
  1  'x, y, z'
loop_
 _atom_site_type_symbol
 _atom_site_label
 _atom_site_symmetry_multiplicity
 _atom_site_fract_x
 _atom_site_fract_y
 _atom_site_fract_z
 _atom_site_occupancy
  Si  Si0  1  0.78656700  0.39179900  0.13260800  1
  Si  Si1  1  0.39476800  0.74080800  0.60820100  1
  Si  Si2  1  0.65396000  0.86739200  0.25919200  1
  Si  Si3  1  0.65396000  0.25919200  0.86739200  1
  Si  Si4  1  0.78656700  0.13260800  0.39179900  1
  Si  Si5  1  0.39476800  0.60820100  0.74080800  1
  Si  Si6  1  0.25919200  0.65396000  0.86739200  1
  Si  Si7  1  0.13260800  0.78656700  0.39179900  1
  Si  Si8  1  0.60820100  0.39476800  0.74080800  1
  Si  Si9  1  0.39179900  0.78656700  0.13260800  1
  Si  Si10  1  0.74080800  0.39476800  0.60820100  1
  Si  Si11  1  0.86739200  0.65396000  0.25919200  1
  Si  Si12  1  0.74080800  0.60820100  0.39476800  1
  Si  Si13  1  0.86739200  0.25919200  0.65396000  1
  Si  Si14  1  0.39179900  0.13260800  0.78656700  1
  Si  Si15  1  0.60820100  0.74080800  0.39476800  1
  Si  Si16  1  0.25919200  0.86739200  0.65396000  1
  Si  Si17  1  0.13260800  0.39179900  0.78656700  1
  Si  Si18  1  0.21343300  0.34604000  0.60523200  1
  Si  Si19  1  0.60523200  0.21343300  0.34604000  1
  Si  Si20  1  0.34604000  0.60523200  0.21343300  1
  Si  Si21  1  0.34604000  0.21343300  0.60523200  1
  Si  Si22  1  0.21343300  0.60523200  0.34604000  1
  Si  Si23  1  0.60523200  0.34604000  0.21343300  1
  Si  Si24  1  0.00000000  0.00000000  0.21737600  1
  Si  Si25  1  0.00000000  0.21737600  0.00000000  1
  Si  Si26  1  0.78262400  0.78262400  0.78262400  1
  Si  Si27  1  0.21737600  0.00000000  0.00000000  1
  Si  Si28  1  0.00000000  0.00000000  0.00000000  1
  Si  Si29  1  0.00000000  0.35928300  0.22321600  1
  Si  Si30  1  0.64071700  0.86393300  0.64071700  1
  Si  Si31  1  0.77678400  0.77678400  0.13606700  1
  Si  Si32  1  0.77678400  0.13606700  0.77678400  1
  Si  Si33  1  0.00000000  0.22321600  0.35928300  1
  Si  Si34  1  0.64071700  0.64071700  0.86393300  1
  Si  Si35  1  0.13606700  0.77678400  0.77678400  1
  Si  Si36  1  0.22321600  0.00000000  0.35928300  1
  Si  Si37  1  0.35928300  0.00000000  0.22321600  1
  Si  Si38  1  0.86393300  0.64071700  0.64071700  1
  Si  Si39  1  0.35928300  0.22321600  0.00000000  1
  Si  Si40  1  0.22321600  0.35928300  0.00000000  1
# generated using pymatgen
data_Si
_symmetry_space_group_name_H-M   'P 1'
_cell_length_a   10.81705566
_cell_length_b   10.81705566
_cell_length_c   10.81705566
_cell_angle_alpha   109.47122063
_cell_angle_beta   109.47122063
_cell_angle_gamma   109.47122063
_symmetry_Int_Tables_number   1
_chemical_formula_structural   Si
_chemical_formula_sum   Si41
_cell_volume   974.32826853
_cell_formula_units_Z   41
loop_
 _symmetry_equiv_pos_site_id
 _symmetry_equiv_pos_as_xyz
  1  'x, y, z'
loop_
 _atom_site_type_symbol
 _atom_site_label
 _atom_site_symmetry_multiplicity
 _atom_site_fract_x
 _atom_site_fract_y
 _atom_site_fract_z
 _atom_site_occupancy
  Si  Si0  1  0.78656700  0.39179900  0.13260800  1
  Si  Si1  1  0.39476800  0.74080800  0.60820100  1
  Si  Si2  1  0.65396000  0.86739200  0.25919200  1
  Si  Si3  1  0.65396000  0.25919200  0.86739200  1
  Si  Si4  1  0.78656700  0.13260800  0.39179900  1
  Si  Si5  1  0.39476800  0.60820100  0.74080800  1
  Si  Si6  1  0.25919200  0.65396000  0.86739200  1
  Si  Si7  1  0.13260800  0.78656700  0.39179900  1
  Si  Si8  1  0.60820100  0.39476800  0.74080800  1
  Si  Si9  1  0.39179900  0.78656700  0.13260800  1
  Si  Si10  1  0.74080800  0.39476800  0.60820100  1
  Si  Si11  1  0.86739200  0.65396000  0.25919200  1
  Si  Si12  1  0.74080800  0.60820100  0.39476800  1
  Si  Si13  1  0.86739200  0.25919200  0.65396000  1
  Si  Si14  1  0.39179900  0.13260800  0.78656700  1
  Si  Si15  1  0.60820100  0.74080800  0.39476800  1
  Si  Si16  1  0.25919200  0.86739200  0.65396000  1
  Si  Si17  1  0.13260800  0.39179900  0.78656700  1
  Si  Si18  1  0.21343300  0.34604000  0.60523200  1
  Si  Si19  1  0.60523200  0.21343300  0.34604000  1
  Si  Si20  1  0.34604000  0.60523200  0.21343300  1
  Si  Si21  1  0.34604000  0.21343300  0.60523200  1
  Si  Si22  1  0.21343300  0.60523200  0.34604000  1
  Si  Si23  1  0.60523200  0.34604000  0.21343300  1
  Si  Si24  1  0.00000000  0.00000000  0.21737600  1
  Si  Si25  1  0.00000000  0.21737600  0.00000000  1
  Si  Si26  1  0.78262400  0.78262400  0.78262400  1
  Si  Si27  1  0.21737600  0.00000000  0.00000000  1
  Si  Si28  1  0.00000000  0.00000000  0.00000000  1
  Si  Si29  1  0.00000000  0.35928300  0.22321600  1
  Si  Si30  1  0.64071700  0.86393300  0.64071700  1
  Si  Si31  1  0.77678400  0.77678400  0.13606700  1
  Si  Si32  1  0.77678400  0.13606700  0.77678400  1
  Si  Si33  1  0.00000000  0.22321600  0.35928300  1
  Si  Si34  1  0.64071700  0.64071700  0.86393300  1
  Si  Si35  1  0.13606700  0.77678400  0.77678400  1
  Si  Si36  1  0.22321600  0.00000000  0.35928300  1
  Si  Si37  1  0.35928300  0.00000000  0.22321600  1
  Si  Si38  1  0.86393300  0.64071700  0.64071700  1
  Si  Si39  1  0.35928300  0.22321600  0.00000000  1
  Si  Si40  1  0.22321600  0.35928300  0.00000000  1
# generated using pymatgen
data_Si
_symmetry_space_group_name_H-M   'P 1'
_cell_length_a   10.81705566
_cell_length_b   10.81705566
_cell_length_c   10.81705566
_cell_angle_alpha   109.47122063
_cell_angle_beta   109.47122063
_cell_angle_gamma   109.47122063
_symmetry_Int_Tables_number   1
_chemical_formula_structural   Si
_chemical_formula_sum   Si41
_cell_volume   974.32826853
_cell_formula_units_Z   41
loop_
 _symmetry_equiv_pos_site_id
 _symmetry_equiv_pos_as_xyz
  1  'x, y, z'
loop_
 _atom_site_type_symbol
 _atom_site_label
 _atom_site_symmetry_multiplicity
 _atom_site_fract_x
 _atom_site_fract_y
 _atom_site_fract_z
 _atom_site_occupancy
  Si  Si0  1  0.78656700  0.39179900  0.13260800  1
  Si  Si1  1  0.39476800  0.74080800  0.60820100  1
  Si  Si2  1  0.65396000  0.86739200  0.25919200  1
  Si  Si3  1  0.65396000  0.25919200  0.86739200  1
  Si  Si4  1  0.78656700  0.13260800  0.39179900  1
  Si  Si5  1  0.39476800  0.60820100  0.74080800  1
  Si  Si6  1  0.25919200  0.65396000  0.86739200  1
  Si  Si7  1  0.13260800  0.78656700  0.39179900  1
  Si  Si8  1  0.60820100  0.39476800  0.74080800  1
  Si  Si9  1  0.39179900  0.78656700  0.13260800  1
  Si  Si10  1  0.74080800  0.39476800  0.60820100  1
  Si  Si11  1  0.86739200  0.65396000  0.25919200  1
  Si  Si12  1  0.74080800  0.60820100  0.39476800  1
  Si  Si13  1  0.86739200  0.25919200  0.65396000  1
  Si  Si14  1  0.39179900  0.13260800  0.78656700  1
  Si  Si15  1  0.60820100  0.74080800  0.39476800  1
  Si  Si16  1  0.25919200  0.86739200  0.65396000  1
  Si  Si17  1  0.13260800  0.39179900  0.78656700  1
  Si  Si18  1  0.21343300  0.34604000  0.60523200  1
  Si  Si19  1  0.60523200  0.21343300  0.34604000  1
  Si  Si20  1  0.34604000  0.60523200  0.21343300  1
  Si  Si21  1  0.34604000  0.21343300  0.60523200  1
  Si  Si22  1  0.21343300  0.60523200  0.34604000  1
  Si  Si23  1  0.60523200  0.34604000  0.21343300  1
  Si  Si24  1  0.00000000  0.00000000  0.21737600  1
  Si  Si25  1  0.00000000  0.21737600  0.00000000  1
  Si  Si26  1  0.78262400  0.78262400  0.78262400  1
  Si  Si27  1  0.21737600  0.00000000  0.00000000  1
  Si  Si28  1  0.00000000  0.00000000  0.00000000  1
  Si  Si29  1  0.00000000  0.35928300  0.22321600  1
  Si  Si30  1  0.64071700  0.86393300  0.64071700  1
  Si  Si31  1  0.77678400  0.77678400  0.13606700  1
  Si  Si32  1  0.77678400  0.13606700  0.77678400  1
  Si  Si33  1  0.00000000  0.22321600  0.35928300  1
  Si  Si34  1  0.64071700  0.64071700  0.86393300  1
  Si  Si35  1  0.13606700  0.77678400  0.77678400  1
  Si  Si36  1  0.22321600  0.00000000  0.35928300  1
  Si  Si37  1  0.35928300  0.00000000  0.22321600  1
  Si  Si38  1  0.86393300  0.64071700  0.64071700  1
  Si  Si39  1  0.35928300  0.22321600  0.00000000  1
  Si  Si40  1  0.22321600  0.35928300  0.00000000  1
# generated using pymatgen
data_Si
_symmetry_space_group_name_H-M   'P 1'
_cell_length_a   10.81705566
_cell_length_b   10.81705566
_cell_length_c   10.81705566
_cell_angle_alpha   109.47122063
_cell_angle_beta   109.47122063
_cell_angle_gamma   109.47122063
_symmetry_Int_Tables_number   1
_chemical_formula_structural   Si
_chemical_formula_sum   Si41
_cell_volume   974.32826853
_cell_formula_units_Z   41
loop_
 _symmetry_equiv_pos_site_id
 _symmetry_equiv_pos_as_xyz
  1  'x, y, z'
loop_
 _atom_site_type_symbol
 _atom_site_label
 _atom_site_symmetry_multiplicity
 _atom_site_fract_x
 _atom_site_fract_y
 _atom_site_fract_z
 _atom_site_occupancy
  Si  Si0  1  0.78656700  0.39179900  0.13260800  1
  Si  Si1  1  0.39476800  0.74080800  0.60820100  1
  Si  Si2  1  0.65396000  0.86739200  0.25919200  1
  Si  Si3  1  0.65396000  0.25919200  0.86739200  1
  Si  Si4  1  0.78656700  0.13260800  0.39179900  1
  Si  Si5  1  0.39476800  0.60820100  0.74080800  1
  Si  Si6  1  0.25919200  0.65396000  0.86739200  1
  Si  Si7  1  0.13260800  0.78656700  0.39179900  1
  Si  Si8  1  0.60820100  0.39476800  0.74080800  1
  Si  Si9  1  0.39179900  0.78656700  0.13260800  1
  Si  Si10  1  0.74080800  0.39476800  0.60820100  1
  Si  Si11  1  0.86739200  0.65396000  0.25919200  1
  Si  Si12  1  0.74080800  0.60820100  0.39476800  1
  Si  Si13  1  0.86739200  0.25919200  0.65396000  1
  Si  Si14  1  0.39179900  0.13260800  0.78656700  1
  Si  Si15  1  0.60820100  0.74080800  0.39476800  1
  Si  Si16  1  0.25919200  0.86739200  0.65396000  1
  Si  Si17  1  0.13260800  0.39179900  0.78656700  1
  Si  Si18  1  0.21343300  0.34604000  0.60523200  1
  Si  Si19  1  0.60523200  0.21343300  0.34604000  1
  Si  Si20  1  0.34604000  0.60523200  0.21343300  1
  Si  Si21  1  0.34604000  0.21343300  0.60523200  1
  Si  Si22  1  0.21343300  0.60523200  0.34604000  1
  Si  Si23  1  0.60523200  0.34604000  0.21343300  1
  Si  Si24  1  0.00000000  0.00000000  0.21737600  1
  Si  Si25  1  0.00000000  0.21737600  0.00000000  1
  Si  Si26  1  0.78262400  0.78262400  0.78262400  1
  Si  Si27  1  0.21737600  0.00000000  0.00000000  1
  Si  Si28  1  0.00000000  0.00000000  0.00000000  1
  Si  Si29  1  0.00000000  0.35928300  0.22321600  1
  Si  Si30  1  0.64071700  0.86393300  0.64071700  1
  Si  Si31  1  0.77678400  0.77678400  0.13606700  1
  Si  Si32  1  0.77678400  0.13606700  0.77678400  1
  Si  Si33  1  0.00000000  0.22321600  0.35928300  1
  Si  Si34  1  0.64071700  0.64071700  0.86393300  1
  Si  Si35  1  0.13606700  0.77678400  0.77678400  1
  Si  Si36  1  0.22321600  0.00000000  0.35928300  1
  Si  Si37  1  0.35928300  0.00000000  0.22321600  1
  Si  Si38  1  0.86393300  0.64071700  0.64071700  1
  Si  Si39  1  0.35928300  0.22321600  0.00000000  1
  Si  Si40  1  0.22321600  0.35928300  0.00000000  1
# generated using pymatgen
data_Si
_symmetry_space_group_name_H-M   'P 1'
_cell_length_a   10.81705566
_cell_length_b   10.81705566
_cell_length_c   10.81705566
_cell_angle_alpha   109.47122063
_cell_angle_beta   109.47122063
_cell_angle_gamma   109.47122063
_symmetry_Int_Tables_number   1
_chemical_formula_structural   Si
_chemical_formula_sum   Si41
_cell_volume   974.32826853
_cell_formula_units_Z   41
loop_
 _symmetry_equiv_pos_site_id
 _symmetry_equiv_pos_as_xyz
  1  'x, y, z'
loop_
 _atom_site_type_symbol
 _atom_site_label
 _atom_site_symmetry_multiplicity
 _atom_site_fract_x
 _atom_site_fract_y
 _atom_site_fract_z
 _atom_site_occupancy
  Si  Si0  1  0.78656700  0.39179900  0.13260800  1
  Si  Si1  1  0.39476800  0.74080800  0.60820100  1
  Si  Si2  1  0.65396000  0.86739200  0.25919200  1
  Si  Si3  1  0.65396000  0.25919200  0.86739200  1
  Si  Si4  1  0.78656700  0.13260800  0.39179900  1
  Si  Si5  1  0.39476800  0.60820100  0.74080800  1
  Si  Si6  1  0.25919200  0.65396000  0.86739200  1
  Si  Si7  1  0.13260800  0.78656700  0.39179900  1
  Si  Si8  1  0.60820100  0.39476800  0.74080800  1
  Si  Si9  1  0.39179900  0.78656700  0.13260800  1
  Si  Si10  1  0.74080800  0.39476800  0.60820100  1
  Si  Si11  1  0.86739200  0.65396000  0.25919200  1
  Si  Si12  1  0.74080800  0.60820100  0.39476800  1
  Si  Si13  1  0.86739200  0.25919200  0.65396000  1
  Si  Si14  1  0.39179900  0.13260800  0.78656700  1
  Si  Si15  1  0.60820100  0.74080800  0.39476800  1
  Si  Si16  1  0.25919200  0.86739200  0.65396000  1
  Si  Si17  1  0.13260800  0.39179900  0.78656700  1
  Si  Si18  1  0.21343300  0.34604000  0.60523200  1
  Si  Si19  1  0.60523200  0.21343300  0.34604000  1
  Si  Si20  1  0.34604000  0.60523200  0.21343300  1
  Si  Si21  1  0.34604000  0.21343300  0.60523200  1
  Si  Si22  1  0.21343300  0.60523200  0.34604000  1
  Si  Si23  1  0.60523200  0.34604000  0.21343300  1
  Si  Si24  1  0.00000000  0.00000000  0.21737600  1
  Si  Si25  1  0.00000000  0.21737600  0.00000000  1
  Si  Si26  1  0.78262400  0.78262400  0.78262400  1
  Si  Si27  1  0.21737600  0.00000000  0.00000000  1
  Si  Si28  1  0.00000000  0.00000000  0.00000000  1
  Si  Si29  1  0.00000000  0.35928300  0.22321600  1
  Si  Si30  1  0.64071700  0.86393300  0.64071700  1
  Si  Si31  1  0.77678400  0.77678400  0.13606700  1
  Si  Si32  1  0.77678400  0.13606700  0.77678400  1
  Si  Si33  1  0.00000000  0.22321600  0.35928300  1
  Si  Si34  1  0.64071700  0.64071700  0.86393300  1
  Si  Si35  1  0.13606700  0.77678400  0.77678400  1
  Si  Si36  1  0.22321600  0.00000000  0.35928300  1
  Si  Si37  1  0.35928300  0.00000000  0.22321600  1
  Si  Si38  1  0.86393300  0.64071700  0.64071700  1
  Si  Si39  1  0.35928300  0.22321600  0.00000000  1
  Si  Si40  1  0.22321600  0.35928300  0.00000000  1
