# generated using pymatgen
data_CdSe2
_symmetry_space_group_name_H-M   'P 1'
_cell_length_a   6.74691700
_cell_length_b   6.74691700
_cell_length_c   6.74691700
_cell_angle_alpha   90.00000000
_cell_angle_beta   90.00000000
_cell_angle_gamma   90.00000000
_symmetry_Int_Tables_number   1
_chemical_formula_structural   CdSe2
_chemical_formula_sum   'Cd4 Se8'
_cell_volume   307.12565988
_cell_formula_units_Z   4
loop_
 _symmetry_equiv_pos_site_id
 _symmetry_equiv_pos_as_xyz
  1  'x, y, z'
loop_
 _atom_site_type_symbol
 _atom_site_label
 _atom_site_symmetry_multiplicity
 _atom_site_fract_x
 _atom_site_fract_y
 _atom_site_fract_z
 _atom_site_occupancy
  Cd  Cd0  1  0.50000000  0.50000000  0.00000000  1
  Cd  Cd1  1  0.50000000  0.00000000  0.50000000  1
  Cd  Cd2  1  0.00000000  0.50000000  0.50000000  1
  Cd  Cd3  1  0.00000000  0.00000000  0.00000000  1
  Se  Se4  1  0.10252200  0.89747800  0.39747800  1
  Se  Se5  1  0.89747800  0.39747800  0.10252200  1
  Se  Se6  1  0.39747800  0.10252200  0.89747800  1
  Se  Se7  1  0.60252200  0.60252200  0.60252200  1
  Se  Se8  1  0.89747800  0.10252200  0.60252200  1
  Se  Se9  1  0.10252200  0.60252200  0.89747800  1
  Se  Se10  1  0.60252200  0.89747800  0.10252200  1
  Se  Se11  1  0.39747800  0.39747800  0.39747800  1
# generated using pymatgen
data_CdSe2
_symmetry_space_group_name_H-M   'P 1'
_cell_length_a   6.74691700
_cell_length_b   6.74691700
_cell_length_c   6.74691700
_cell_angle_alpha   90.00000000
_cell_angle_beta   90.00000000
_cell_angle_gamma   90.00000000
_symmetry_Int_Tables_number   1
_chemical_formula_structural   CdSe2
_chemical_formula_sum   'Cd4 Se8'
_cell_volume   307.12565988
_cell_formula_units_Z   4
loop_
 _symmetry_equiv_pos_site_id
 _symmetry_equiv_pos_as_xyz
  1  'x, y, z'
loop_
 _atom_site_type_symbol
 _atom_site_label
 _atom_site_symmetry_multiplicity
 _atom_site_fract_x
 _atom_site_fract_y
 _atom_site_fract_z
 _atom_site_occupancy
  Cd  Cd0  1  0.50000000  0.50000000  0.00000000  1
  Cd  Cd1  1  0.50000000  0.00000000  0.50000000  1
  Cd  Cd2  1  0.00000000  0.50000000  0.50000000  1
  Cd  Cd3  1  0.00000000  0.00000000  0.00000000  1
  Se  Se4  1  0.10252200  0.89747800  0.39747800  1
  Se  Se5  1  0.89747800  0.39747800  0.10252200  1
  Se  Se6  1  0.39747800  0.10252200  0.89747800  1
  Se  Se7  1  0.60252200  0.60252200  0.60252200  1
  Se  Se8  1  0.89747800  0.10252200  0.60252200  1
  Se  Se9  1  0.10252200  0.60252200  0.89747800  1
  Se  Se10  1  0.60252200  0.89747800  0.10252200  1
  Se  Se11  1  0.39747800  0.39747800  0.39747800  1
# generated using pymatgen
data_CdSe2
_symmetry_space_group_name_H-M   'P 1'
_cell_length_a   6.74691700
_cell_length_b   6.74691700
_cell_length_c   6.74691700
_cell_angle_alpha   90.00000000
_cell_angle_beta   90.00000000
_cell_angle_gamma   90.00000000
_symmetry_Int_Tables_number   1
_chemical_formula_structural   CdSe2
_chemical_formula_sum   'Cd4 Se8'
_cell_volume   307.12565988
_cell_formula_units_Z   4
loop_
 _symmetry_equiv_pos_site_id
 _symmetry_equiv_pos_as_xyz
  1  'x, y, z'
loop_
 _atom_site_type_symbol
 _atom_site_label
 _atom_site_symmetry_multiplicity
 _atom_site_fract_x
 _atom_site_fract_y
 _atom_site_fract_z
 _atom_site_occupancy
  Cd  Cd0  1  0.50000000  0.50000000  0.00000000  1
  Cd  Cd1  1  0.50000000  0.00000000  0.50000000  1
  Cd  Cd2  1  0.00000000  0.50000000  0.50000000  1
  Cd  Cd3  1  0.00000000  0.00000000  0.00000000  1
  Se  Se4  1  0.10252200  0.89747800  0.39747800  1
  Se  Se5  1  0.89747800  0.39747800  0.10252200  1
  Se  Se6  1  0.39747800  0.10252200  0.89747800  1
  Se  Se7  1  0.60252200  0.60252200  0.60252200  1
  Se  Se8  1  0.89747800  0.10252200  0.60252200  1
  Se  Se9  1  0.10252200  0.60252200  0.89747800  1
  Se  Se10  1  0.60252200  0.89747800  0.10252200  1
  Se  Se11  1  0.39747800  0.39747800  0.39747800  1
# generated using pymatgen
data_CdSe2
_symmetry_space_group_name_H-M   'P 1'
_cell_length_a   6.74691700
_cell_length_b   6.74691700
_cell_length_c   6.74691700
_cell_angle_alpha   90.00000000
_cell_angle_beta   90.00000000
_cell_angle_gamma   90.00000000
_symmetry_Int_Tables_number   1
_chemical_formula_structural   CdSe2
_chemical_formula_sum   'Cd4 Se8'
_cell_volume   307.12565988
_cell_formula_units_Z   4
loop_
 _symmetry_equiv_pos_site_id
 _symmetry_equiv_pos_as_xyz
  1  'x, y, z'
loop_
 _atom_site_type_symbol
 _atom_site_label
 _atom_site_symmetry_multiplicity
 _atom_site_fract_x
 _atom_site_fract_y
 _atom_site_fract_z
 _atom_site_occupancy
  Cd  Cd0  1  0.50000000  0.50000000  0.00000000  1
  Cd  Cd1  1  0.50000000  0.00000000  0.50000000  1
  Cd  Cd2  1  0.00000000  0.50000000  0.50000000  1
  Cd  Cd3  1  0.00000000  0.00000000  0.00000000  1
  Se  Se4  1  0.10252200  0.89747800  0.39747800  1
  Se  Se5  1  0.89747800  0.39747800  0.10252200  1
  Se  Se6  1  0.39747800  0.10252200  0.89747800  1
  Se  Se7  1  0.60252200  0.60252200  0.60252200  1
  Se  Se8  1  0.89747800  0.10252200  0.60252200  1
  Se  Se9  1  0.10252200  0.60252200  0.89747800  1
  Se  Se10  1  0.60252200  0.89747800  0.10252200  1
  Se  Se11  1  0.39747800  0.39747800  0.39747800  1
# generated using pymatgen
data_CdSe2
_symmetry_space_group_name_H-M   'P 1'
_cell_length_a   6.74691700
_cell_length_b   6.74691700
_cell_length_c   6.74691700
_cell_angle_alpha   90.00000000
_cell_angle_beta   90.00000000
_cell_angle_gamma   90.00000000
_symmetry_Int_Tables_number   1
_chemical_formula_structural   CdSe2
_chemical_formula_sum   'Cd4 Se8'
_cell_volume   307.12565988
_cell_formula_units_Z   4
loop_
 _symmetry_equiv_pos_site_id
 _symmetry_equiv_pos_as_xyz
  1  'x, y, z'
loop_
 _atom_site_type_symbol
 _atom_site_label
 _atom_site_symmetry_multiplicity
 _atom_site_fract_x
 _atom_site_fract_y
 _atom_site_fract_z
 _atom_site_occupancy
  Cd  Cd0  1  0.50000000  0.50000000  0.00000000  1
  Cd  Cd1  1  0.50000000  0.00000000  0.50000000  1
  Cd  Cd2  1  0.00000000  0.50000000  0.50000000  1
  Cd  Cd3  1  0.00000000  0.00000000  0.00000000  1
  Se  Se4  1  0.10252200  0.89747800  0.39747800  1
  Se  Se5  1  0.89747800  0.39747800  0.10252200  1
  Se  Se6  1  0.39747800  0.10252200  0.89747800  1
  Se  Se7  1  0.60252200  0.60252200  0.60252200  1
  Se  Se8  1  0.89747800  0.10252200  0.60252200  1
  Se  Se9  1  0.10252200  0.60252200  0.89747800  1
  Se  Se10  1  0.60252200  0.89747800  0.10252200  1
  Se  Se11  1  0.39747800  0.39747800  0.39747800  1
