# generated using pymatgen
data_Ge
_symmetry_space_group_name_H-M   'P 1'
_cell_length_a   5.35711117
_cell_length_b   5.35711117
_cell_length_c   5.88204500
_cell_angle_alpha   90.00000000
_cell_angle_beta   90.00000000
_cell_angle_gamma   111.69212739
_symmetry_Int_Tables_number   1
_chemical_formula_structural   Ge
_chemical_formula_sum   Ge8
_cell_volume   156.85237093
_cell_formula_units_Z   8
loop_
 _symmetry_equiv_pos_site_id
 _symmetry_equiv_pos_as_xyz
  1  'x, y, z'
loop_
 _atom_site_type_symbol
 _atom_site_label
 _atom_site_symmetry_multiplicity
 _atom_site_fract_x
 _atom_site_fract_y
 _atom_site_fract_z
 _atom_site_occupancy
  Ge  Ge0  1  0.71799300  0.28200700  0.50000000  1
  Ge  Ge1  1  0.21799300  0.78200700  0.00000000  1
  Ge  Ge2  1  0.28200700  0.71799300  0.50000000  1
  Ge  Ge3  1  0.78200700  0.21799300  0.00000000  1
  Ge  Ge4  1  0.33116800  0.33116800  0.82909600  1
  Ge  Ge5  1  0.66883200  0.66883200  0.17090400  1
  Ge  Ge6  1  0.16883200  0.16883200  0.32909600  1
  Ge  Ge7  1  0.83116800  0.83116800  0.67090400  1
# generated using pymatgen
data_Ge
_symmetry_space_group_name_H-M   'P 1'
_cell_length_a   5.35711117
_cell_length_b   5.35711117
_cell_length_c   5.88204500
_cell_angle_alpha   90.00000000
_cell_angle_beta   90.00000000
_cell_angle_gamma   111.69212739
_symmetry_Int_Tables_number   1
_chemical_formula_structural   Ge
_chemical_formula_sum   Ge8
_cell_volume   156.85237093
_cell_formula_units_Z   8
loop_
 _symmetry_equiv_pos_site_id
 _symmetry_equiv_pos_as_xyz
  1  'x, y, z'
loop_
 _atom_site_type_symbol
 _atom_site_label
 _atom_site_symmetry_multiplicity
 _atom_site_fract_x
 _atom_site_fract_y
 _atom_site_fract_z
 _atom_site_occupancy
  Ge  Ge0  1  0.71799300  0.28200700  0.50000000  1
  Ge  Ge1  1  0.21799300  0.78200700  0.00000000  1
  Ge  Ge2  1  0.28200700  0.71799300  0.50000000  1
  Ge  Ge3  1  0.78200700  0.21799300  0.00000000  1
  Ge  Ge4  1  0.33116800  0.33116800  0.82909600  1
  Ge  Ge5  1  0.66883200  0.66883200  0.17090400  1
  Ge  Ge6  1  0.16883200  0.16883200  0.32909600  1
  Ge  Ge7  1  0.83116800  0.83116800  0.67090400  1
# generated using pymatgen
data_Ge
_symmetry_space_group_name_H-M   'P 1'
_cell_length_a   5.35711117
_cell_length_b   5.35711117
_cell_length_c   5.88204500
_cell_angle_alpha   90.00000000
_cell_angle_beta   90.00000000
_cell_angle_gamma   111.69212739
_symmetry_Int_Tables_number   1
_chemical_formula_structural   Ge
_chemical_formula_sum   Ge8
_cell_volume   156.85237093
_cell_formula_units_Z   8
loop_
 _symmetry_equiv_pos_site_id
 _symmetry_equiv_pos_as_xyz
  1  'x, y, z'
loop_
 _atom_site_type_symbol
 _atom_site_label
 _atom_site_symmetry_multiplicity
 _atom_site_fract_x
 _atom_site_fract_y
 _atom_site_fract_z
 _atom_site_occupancy
  Ge  Ge0  1  0.71799300  0.28200700  0.50000000  1
  Ge  Ge1  1  0.21799300  0.78200700  0.00000000  1
  Ge  Ge2  1  0.28200700  0.71799300  0.50000000  1
  Ge  Ge3  1  0.78200700  0.21799300  0.00000000  1
  Ge  Ge4  1  0.33116800  0.33116800  0.82909600  1
  Ge  Ge5  1  0.66883200  0.66883200  0.17090400  1
  Ge  Ge6  1  0.16883200  0.16883200  0.32909600  1
  Ge  Ge7  1  0.83116800  0.83116800  0.67090400  1
# generated using pymatgen
data_Ge
_symmetry_space_group_name_H-M   'P 1'
_cell_length_a   5.35711117
_cell_length_b   5.35711117
_cell_length_c   5.88204500
_cell_angle_alpha   90.00000000
_cell_angle_beta   90.00000000
_cell_angle_gamma   111.69212739
_symmetry_Int_Tables_number   1
_chemical_formula_structural   Ge
_chemical_formula_sum   Ge8
_cell_volume   156.85237093
_cell_formula_units_Z   8
loop_
 _symmetry_equiv_pos_site_id
 _symmetry_equiv_pos_as_xyz
  1  'x, y, z'
loop_
 _atom_site_type_symbol
 _atom_site_label
 _atom_site_symmetry_multiplicity
 _atom_site_fract_x
 _atom_site_fract_y
 _atom_site_fract_z
 _atom_site_occupancy
  Ge  Ge0  1  0.71799300  0.28200700  0.50000000  1
  Ge  Ge1  1  0.21799300  0.78200700  0.00000000  1
  Ge  Ge2  1  0.28200700  0.71799300  0.50000000  1
  Ge  Ge3  1  0.78200700  0.21799300  0.00000000  1
  Ge  Ge4  1  0.33116800  0.33116800  0.82909600  1
  Ge  Ge5  1  0.66883200  0.66883200  0.17090400  1
  Ge  Ge6  1  0.16883200  0.16883200  0.32909600  1
  Ge  Ge7  1  0.83116800  0.83116800  0.67090400  1
# generated using pymatgen
data_Ge
_symmetry_space_group_name_H-M   'P 1'
_cell_length_a   5.35711117
_cell_length_b   5.35711117
_cell_length_c   5.88204500
_cell_angle_alpha   90.00000000
_cell_angle_beta   90.00000000
_cell_angle_gamma   111.69212739
_symmetry_Int_Tables_number   1
_chemical_formula_structural   Ge
_chemical_formula_sum   Ge8
_cell_volume   156.85237093
_cell_formula_units_Z   8
loop_
 _symmetry_equiv_pos_site_id
 _symmetry_equiv_pos_as_xyz
  1  'x, y, z'
loop_
 _atom_site_type_symbol
 _atom_site_label
 _atom_site_symmetry_multiplicity
 _atom_site_fract_x
 _atom_site_fract_y
 _atom_site_fract_z
 _atom_site_occupancy
  Ge  Ge0  1  0.71799300  0.28200700  0.50000000  1
  Ge  Ge1  1  0.21799300  0.78200700  0.00000000  1
  Ge  Ge2  1  0.28200700  0.71799300  0.50000000  1
  Ge  Ge3  1  0.78200700  0.21799300  0.00000000  1
  Ge  Ge4  1  0.33116800  0.33116800  0.82909600  1
  Ge  Ge5  1  0.66883200  0.66883200  0.17090400  1
  Ge  Ge6  1  0.16883200  0.16883200  0.32909600  1
  Ge  Ge7  1  0.83116800  0.83116800  0.67090400  1
# generated using pymatgen
data_Ge
_symmetry_space_group_name_H-M   'P 1'
_cell_length_a   5.35711117
_cell_length_b   5.35711117
_cell_length_c   5.88204500
_cell_angle_alpha   90.00000000
_cell_angle_beta   90.00000000
_cell_angle_gamma   111.69212739
_symmetry_Int_Tables_number   1
_chemical_formula_structural   Ge
_chemical_formula_sum   Ge8
_cell_volume   156.85237093
_cell_formula_units_Z   8
loop_
 _symmetry_equiv_pos_site_id
 _symmetry_equiv_pos_as_xyz
  1  'x, y, z'
loop_
 _atom_site_type_symbol
 _atom_site_label
 _atom_site_symmetry_multiplicity
 _atom_site_fract_x
 _atom_site_fract_y
 _atom_site_fract_z
 _atom_site_occupancy
  Ge  Ge0  1  0.71799300  0.28200700  0.50000000  1
  Ge  Ge1  1  0.21799300  0.78200700  0.00000000  1
  Ge  Ge2  1  0.28200700  0.71799300  0.50000000  1
  Ge  Ge3  1  0.78200700  0.21799300  0.00000000  1
  Ge  Ge4  1  0.33116800  0.33116800  0.82909600  1
  Ge  Ge5  1  0.66883200  0.66883200  0.17090400  1
  Ge  Ge6  1  0.16883200  0.16883200  0.32909600  1
  Ge  Ge7  1  0.83116800  0.83116800  0.67090400  1
