# generated using pymatgen
data_Ge
_symmetry_space_group_name_H-M   'P 1'
_cell_length_a   6.10341449
_cell_length_b   6.10341449
_cell_length_c   6.10341449
_cell_angle_alpha   109.47122063
_cell_angle_beta   109.47122063
_cell_angle_gamma   109.47122063
_symmetry_Int_Tables_number   1
_chemical_formula_structural   Ge
_chemical_formula_sum   Ge8
_cell_volume   175.02363646
_cell_formula_units_Z   8
loop_
 _symmetry_equiv_pos_site_id
 _symmetry_equiv_pos_as_xyz
  1  'x, y, z'
loop_
 _atom_site_type_symbol
 _atom_site_label
 _atom_site_symmetry_multiplicity
 _atom_site_fract_x
 _atom_site_fract_y
 _atom_site_fract_z
 _atom_site_occupancy
  Ge  Ge0  1  0.50000000  0.00000000  0.79822600  1
  Ge  Ge1  1  0.79822600  0.50000000  0.00000000  1
  Ge  Ge2  1  0.00000000  0.79822600  0.50000000  1
  Ge  Ge3  1  0.70177400  0.70177400  0.70177400  1
  Ge  Ge4  1  0.50000000  0.00000000  0.20177400  1
  Ge  Ge5  1  0.20177400  0.50000000  0.00000000  1
  Ge  Ge6  1  0.00000000  0.20177400  0.50000000  1
  Ge  Ge7  1  0.29822600  0.29822600  0.29822600  1
# generated using pymatgen
data_Ge
_symmetry_space_group_name_H-M   'P 1'
_cell_length_a   6.10341449
_cell_length_b   6.10341449
_cell_length_c   6.10341449
_cell_angle_alpha   109.47122063
_cell_angle_beta   109.47122063
_cell_angle_gamma   109.47122063
_symmetry_Int_Tables_number   1
_chemical_formula_structural   Ge
_chemical_formula_sum   Ge8
_cell_volume   175.02363646
_cell_formula_units_Z   8
loop_
 _symmetry_equiv_pos_site_id
 _symmetry_equiv_pos_as_xyz
  1  'x, y, z'
loop_
 _atom_site_type_symbol
 _atom_site_label
 _atom_site_symmetry_multiplicity
 _atom_site_fract_x
 _atom_site_fract_y
 _atom_site_fract_z
 _atom_site_occupancy
  Ge  Ge0  1  0.50000000  0.00000000  0.79822600  1
  Ge  Ge1  1  0.79822600  0.50000000  0.00000000  1
  Ge  Ge2  1  0.00000000  0.79822600  0.50000000  1
  Ge  Ge3  1  0.70177400  0.70177400  0.70177400  1
  Ge  Ge4  1  0.50000000  0.00000000  0.20177400  1
  Ge  Ge5  1  0.20177400  0.50000000  0.00000000  1
  Ge  Ge6  1  0.00000000  0.20177400  0.50000000  1
  Ge  Ge7  1  0.29822600  0.29822600  0.29822600  1
# generated using pymatgen
data_Ge
_symmetry_space_group_name_H-M   'P 1'
_cell_length_a   6.10341449
_cell_length_b   6.10341449
_cell_length_c   6.10341449
_cell_angle_alpha   109.47122063
_cell_angle_beta   109.47122063
_cell_angle_gamma   109.47122063
_symmetry_Int_Tables_number   1
_chemical_formula_structural   Ge
_chemical_formula_sum   Ge8
_cell_volume   175.02363646
_cell_formula_units_Z   8
loop_
 _symmetry_equiv_pos_site_id
 _symmetry_equiv_pos_as_xyz
  1  'x, y, z'
loop_
 _atom_site_type_symbol
 _atom_site_label
 _atom_site_symmetry_multiplicity
 _atom_site_fract_x
 _atom_site_fract_y
 _atom_site_fract_z
 _atom_site_occupancy
  Ge  Ge0  1  0.50000000  0.00000000  0.79822600  1
  Ge  Ge1  1  0.79822600  0.50000000  0.00000000  1
  Ge  Ge2  1  0.00000000  0.79822600  0.50000000  1
  Ge  Ge3  1  0.70177400  0.70177400  0.70177400  1
  Ge  Ge4  1  0.50000000  0.00000000  0.20177400  1
  Ge  Ge5  1  0.20177400  0.50000000  0.00000000  1
  Ge  Ge6  1  0.00000000  0.20177400  0.50000000  1
  Ge  Ge7  1  0.29822600  0.29822600  0.29822600  1
# generated using pymatgen
data_Ge
_symmetry_space_group_name_H-M   'P 1'
_cell_length_a   6.10341449
_cell_length_b   6.10341449
_cell_length_c   6.10341449
_cell_angle_alpha   109.47122063
_cell_angle_beta   109.47122063
_cell_angle_gamma   109.47122063
_symmetry_Int_Tables_number   1
_chemical_formula_structural   Ge
_chemical_formula_sum   Ge8
_cell_volume   175.02363646
_cell_formula_units_Z   8
loop_
 _symmetry_equiv_pos_site_id
 _symmetry_equiv_pos_as_xyz
  1  'x, y, z'
loop_
 _atom_site_type_symbol
 _atom_site_label
 _atom_site_symmetry_multiplicity
 _atom_site_fract_x
 _atom_site_fract_y
 _atom_site_fract_z
 _atom_site_occupancy
  Ge  Ge0  1  0.50000000  0.00000000  0.79822600  1
  Ge  Ge1  1  0.79822600  0.50000000  0.00000000  1
  Ge  Ge2  1  0.00000000  0.79822600  0.50000000  1
  Ge  Ge3  1  0.70177400  0.70177400  0.70177400  1
  Ge  Ge4  1  0.50000000  0.00000000  0.20177400  1
  Ge  Ge5  1  0.20177400  0.50000000  0.00000000  1
  Ge  Ge6  1  0.00000000  0.20177400  0.50000000  1
  Ge  Ge7  1  0.29822600  0.29822600  0.29822600  1
# generated using pymatgen
data_Ge
_symmetry_space_group_name_H-M   'P 1'
_cell_length_a   6.10341449
_cell_length_b   6.10341449
_cell_length_c   6.10341449
_cell_angle_alpha   109.47122063
_cell_angle_beta   109.47122063
_cell_angle_gamma   109.47122063
_symmetry_Int_Tables_number   1
_chemical_formula_structural   Ge
_chemical_formula_sum   Ge8
_cell_volume   175.02363646
_cell_formula_units_Z   8
loop_
 _symmetry_equiv_pos_site_id
 _symmetry_equiv_pos_as_xyz
  1  'x, y, z'
loop_
 _atom_site_type_symbol
 _atom_site_label
 _atom_site_symmetry_multiplicity
 _atom_site_fract_x
 _atom_site_fract_y
 _atom_site_fract_z
 _atom_site_occupancy
  Ge  Ge0  1  0.50000000  0.00000000  0.79822600  1
  Ge  Ge1  1  0.79822600  0.50000000  0.00000000  1
  Ge  Ge2  1  0.00000000  0.79822600  0.50000000  1
  Ge  Ge3  1  0.70177400  0.70177400  0.70177400  1
  Ge  Ge4  1  0.50000000  0.00000000  0.20177400  1
  Ge  Ge5  1  0.20177400  0.50000000  0.00000000  1
  Ge  Ge6  1  0.00000000  0.20177400  0.50000000  1
  Ge  Ge7  1  0.29822600  0.29822600  0.29822600  1
# generated using pymatgen
data_Ge
_symmetry_space_group_name_H-M   'P 1'
_cell_length_a   6.10341449
_cell_length_b   6.10341449
_cell_length_c   6.10341449
_cell_angle_alpha   109.47122063
_cell_angle_beta   109.47122063
_cell_angle_gamma   109.47122063
_symmetry_Int_Tables_number   1
_chemical_formula_structural   Ge
_chemical_formula_sum   Ge8
_cell_volume   175.02363646
_cell_formula_units_Z   8
loop_
 _symmetry_equiv_pos_site_id
 _symmetry_equiv_pos_as_xyz
  1  'x, y, z'
loop_
 _atom_site_type_symbol
 _atom_site_label
 _atom_site_symmetry_multiplicity
 _atom_site_fract_x
 _atom_site_fract_y
 _atom_site_fract_z
 _atom_site_occupancy
  Ge  Ge0  1  0.50000000  0.00000000  0.79822600  1
  Ge  Ge1  1  0.79822600  0.50000000  0.00000000  1
  Ge  Ge2  1  0.00000000  0.79822600  0.50000000  1
  Ge  Ge3  1  0.70177400  0.70177400  0.70177400  1
  Ge  Ge4  1  0.50000000  0.00000000  0.20177400  1
  Ge  Ge5  1  0.20177400  0.50000000  0.00000000  1
  Ge  Ge6  1  0.00000000  0.20177400  0.50000000  1
  Ge  Ge7  1  0.29822600  0.29822600  0.29822600  1
