# generated using pymatgen
data_Si
_symmetry_space_group_name_H-M   'P 1'
_cell_length_a   7.20868060
_cell_length_b   7.20868060
_cell_length_c   6.36089532
_cell_angle_alpha   83.43841503
_cell_angle_beta   83.43841503
_cell_angle_gamma   31.15565378
_symmetry_Int_Tables_number   1
_chemical_formula_structural   Si
_chemical_formula_sum   Si8
_cell_volume   169.80447533
_cell_formula_units_Z   8
loop_
 _symmetry_equiv_pos_site_id
 _symmetry_equiv_pos_as_xyz
  1  'x, y, z'
loop_
 _atom_site_type_symbol
 _atom_site_label
 _atom_site_symmetry_multiplicity
 _atom_site_fract_x
 _atom_site_fract_y
 _atom_site_fract_z
 _atom_site_occupancy
  Si  Si0  1  0.94427700  0.94427700  0.87392900  1
  Si  Si1  1  0.05572300  0.05572300  0.12607100  1
  Si  Si2  1  0.44078300  0.44078300  0.65371600  1
  Si  Si3  1  0.55921700  0.55921700  0.34628400  1
  Si  Si4  1  0.78704300  0.78704300  0.05707100  1
  Si  Si5  1  0.21295700  0.21295700  0.94292900  1
  Si  Si6  1  0.27275000  0.27275000  0.58572700  1
  Si  Si7  1  0.72725000  0.72725000  0.41427300  1
# generated using pymatgen
data_Si
_symmetry_space_group_name_H-M   'P 1'
_cell_length_a   7.20868060
_cell_length_b   7.20868060
_cell_length_c   6.36089532
_cell_angle_alpha   83.43841503
_cell_angle_beta   83.43841503
_cell_angle_gamma   31.15565378
_symmetry_Int_Tables_number   1
_chemical_formula_structural   Si
_chemical_formula_sum   Si8
_cell_volume   169.80447533
_cell_formula_units_Z   8
loop_
 _symmetry_equiv_pos_site_id
 _symmetry_equiv_pos_as_xyz
  1  'x, y, z'
loop_
 _atom_site_type_symbol
 _atom_site_label
 _atom_site_symmetry_multiplicity
 _atom_site_fract_x
 _atom_site_fract_y
 _atom_site_fract_z
 _atom_site_occupancy
  Si  Si0  1  0.94427700  0.94427700  0.87392900  1
  Si  Si1  1  0.05572300  0.05572300  0.12607100  1
  Si  Si2  1  0.44078300  0.44078300  0.65371600  1
  Si  Si3  1  0.55921700  0.55921700  0.34628400  1
  Si  Si4  1  0.78704300  0.78704300  0.05707100  1
  Si  Si5  1  0.21295700  0.21295700  0.94292900  1
  Si  Si6  1  0.27275000  0.27275000  0.58572700  1
  Si  Si7  1  0.72725000  0.72725000  0.41427300  1
# generated using pymatgen
data_Si
_symmetry_space_group_name_H-M   'P 1'
_cell_length_a   7.20868060
_cell_length_b   7.20868060
_cell_length_c   6.36089532
_cell_angle_alpha   83.43841503
_cell_angle_beta   83.43841503
_cell_angle_gamma   31.15565378
_symmetry_Int_Tables_number   1
_chemical_formula_structural   Si
_chemical_formula_sum   Si8
_cell_volume   169.80447533
_cell_formula_units_Z   8
loop_
 _symmetry_equiv_pos_site_id
 _symmetry_equiv_pos_as_xyz
  1  'x, y, z'
loop_
 _atom_site_type_symbol
 _atom_site_label
 _atom_site_symmetry_multiplicity
 _atom_site_fract_x
 _atom_site_fract_y
 _atom_site_fract_z
 _atom_site_occupancy
  Si  Si0  1  0.94427700  0.94427700  0.87392900  1
  Si  Si1  1  0.05572300  0.05572300  0.12607100  1
  Si  Si2  1  0.44078300  0.44078300  0.65371600  1
  Si  Si3  1  0.55921700  0.55921700  0.34628400  1
  Si  Si4  1  0.78704300  0.78704300  0.05707100  1
  Si  Si5  1  0.21295700  0.21295700  0.94292900  1
  Si  Si6  1  0.27275000  0.27275000  0.58572700  1
  Si  Si7  1  0.72725000  0.72725000  0.41427300  1
# generated using pymatgen
data_Si
_symmetry_space_group_name_H-M   'P 1'
_cell_length_a   7.20868060
_cell_length_b   7.20868060
_cell_length_c   6.36089532
_cell_angle_alpha   83.43841503
_cell_angle_beta   83.43841503
_cell_angle_gamma   31.15565378
_symmetry_Int_Tables_number   1
_chemical_formula_structural   Si
_chemical_formula_sum   Si8
_cell_volume   169.80447533
_cell_formula_units_Z   8
loop_
 _symmetry_equiv_pos_site_id
 _symmetry_equiv_pos_as_xyz
  1  'x, y, z'
loop_
 _atom_site_type_symbol
 _atom_site_label
 _atom_site_symmetry_multiplicity
 _atom_site_fract_x
 _atom_site_fract_y
 _atom_site_fract_z
 _atom_site_occupancy
  Si  Si0  1  0.94427700  0.94427700  0.87392900  1
  Si  Si1  1  0.05572300  0.05572300  0.12607100  1
  Si  Si2  1  0.44078300  0.44078300  0.65371600  1
  Si  Si3  1  0.55921700  0.55921700  0.34628400  1
  Si  Si4  1  0.78704300  0.78704300  0.05707100  1
  Si  Si5  1  0.21295700  0.21295700  0.94292900  1
  Si  Si6  1  0.27275000  0.27275000  0.58572700  1
  Si  Si7  1  0.72725000  0.72725000  0.41427300  1
# generated using pymatgen
data_Si
_symmetry_space_group_name_H-M   'P 1'
_cell_length_a   7.20868060
_cell_length_b   7.20868060
_cell_length_c   6.36089532
_cell_angle_alpha   83.43841503
_cell_angle_beta   83.43841503
_cell_angle_gamma   31.15565378
_symmetry_Int_Tables_number   1
_chemical_formula_structural   Si
_chemical_formula_sum   Si8
_cell_volume   169.80447533
_cell_formula_units_Z   8
loop_
 _symmetry_equiv_pos_site_id
 _symmetry_equiv_pos_as_xyz
  1  'x, y, z'
loop_
 _atom_site_type_symbol
 _atom_site_label
 _atom_site_symmetry_multiplicity
 _atom_site_fract_x
 _atom_site_fract_y
 _atom_site_fract_z
 _atom_site_occupancy
  Si  Si0  1  0.94427700  0.94427700  0.87392900  1
  Si  Si1  1  0.05572300  0.05572300  0.12607100  1
  Si  Si2  1  0.44078300  0.44078300  0.65371600  1
  Si  Si3  1  0.55921700  0.55921700  0.34628400  1
  Si  Si4  1  0.78704300  0.78704300  0.05707100  1
  Si  Si5  1  0.21295700  0.21295700  0.94292900  1
  Si  Si6  1  0.27275000  0.27275000  0.58572700  1
  Si  Si7  1  0.72725000  0.72725000  0.41427300  1
# generated using pymatgen
data_Si
_symmetry_space_group_name_H-M   'P 1'
_cell_length_a   7.20868060
_cell_length_b   7.20868060
_cell_length_c   6.36089532
_cell_angle_alpha   83.43841503
_cell_angle_beta   83.43841503
_cell_angle_gamma   31.15565378
_symmetry_Int_Tables_number   1
_chemical_formula_structural   Si
_chemical_formula_sum   Si8
_cell_volume   169.80447533
_cell_formula_units_Z   8
loop_
 _symmetry_equiv_pos_site_id
 _symmetry_equiv_pos_as_xyz
  1  'x, y, z'
loop_
 _atom_site_type_symbol
 _atom_site_label
 _atom_site_symmetry_multiplicity
 _atom_site_fract_x
 _atom_site_fract_y
 _atom_site_fract_z
 _atom_site_occupancy
  Si  Si0  1  0.94427700  0.94427700  0.87392900  1
  Si  Si1  1  0.05572300  0.05572300  0.12607100  1
  Si  Si2  1  0.44078300  0.44078300  0.65371600  1
  Si  Si3  1  0.55921700  0.55921700  0.34628400  1
  Si  Si4  1  0.78704300  0.78704300  0.05707100  1
  Si  Si5  1  0.21295700  0.21295700  0.94292900  1
  Si  Si6  1  0.27275000  0.27275000  0.58572700  1
  Si  Si7  1  0.72725000  0.72725000  0.41427300  1
