# generated using pymatgen
data_Si
_symmetry_space_group_name_H-M   'P 1'
_cell_length_a   5.04702600
_cell_length_b   5.43281360
_cell_length_c   6.90227929
_cell_angle_alpha   109.53844713
_cell_angle_beta   109.19935442
_cell_angle_gamma   83.80059797
_symmetry_Int_Tables_number   1
_chemical_formula_structural   Si
_chemical_formula_sum   Si8
_cell_volume   168.43868591
_cell_formula_units_Z   8
loop_
 _symmetry_equiv_pos_site_id
 _symmetry_equiv_pos_as_xyz
  1  'x, y, z'
loop_
 _atom_site_type_symbol
 _atom_site_label
 _atom_site_symmetry_multiplicity
 _atom_site_fract_x
 _atom_site_fract_y
 _atom_site_fract_z
 _atom_site_occupancy
  Si  Si0  1  0.75753800  0.97965300  0.11753900  1
  Si  Si1  1  0.44746700  0.79547800  0.74350800  1
  Si  Si2  1  0.75544600  0.42525000  0.30822300  1
  Si  Si3  1  0.06643600  0.78630100  0.89395900  1
  Si  Si4  1  0.45186800  0.77460500  0.24569000  1
  Si  Si5  1  0.75136900  0.44131000  0.65243200  1
  Si  Si6  1  0.05103400  0.78127400  0.39039000  1
  Si  Si7  1  0.75140900  0.00098300  0.62596900  1
# generated using pymatgen
data_Si
_symmetry_space_group_name_H-M   'P 1'
_cell_length_a   5.04702600
_cell_length_b   5.43281360
_cell_length_c   6.90227929
_cell_angle_alpha   109.53844713
_cell_angle_beta   109.19935442
_cell_angle_gamma   83.80059797
_symmetry_Int_Tables_number   1
_chemical_formula_structural   Si
_chemical_formula_sum   Si8
_cell_volume   168.43868591
_cell_formula_units_Z   8
loop_
 _symmetry_equiv_pos_site_id
 _symmetry_equiv_pos_as_xyz
  1  'x, y, z'
loop_
 _atom_site_type_symbol
 _atom_site_label
 _atom_site_symmetry_multiplicity
 _atom_site_fract_x
 _atom_site_fract_y
 _atom_site_fract_z
 _atom_site_occupancy
  Si  Si0  1  0.75753800  0.97965300  0.11753900  1
  Si  Si1  1  0.44746700  0.79547800  0.74350800  1
  Si  Si2  1  0.75544600  0.42525000  0.30822300  1
  Si  Si3  1  0.06643600  0.78630100  0.89395900  1
  Si  Si4  1  0.45186800  0.77460500  0.24569000  1
  Si  Si5  1  0.75136900  0.44131000  0.65243200  1
  Si  Si6  1  0.05103400  0.78127400  0.39039000  1
  Si  Si7  1  0.75140900  0.00098300  0.62596900  1
# generated using pymatgen
data_Si
_symmetry_space_group_name_H-M   'P 1'
_cell_length_a   5.04702600
_cell_length_b   5.43281360
_cell_length_c   6.90227929
_cell_angle_alpha   109.53844713
_cell_angle_beta   109.19935442
_cell_angle_gamma   83.80059797
_symmetry_Int_Tables_number   1
_chemical_formula_structural   Si
_chemical_formula_sum   Si8
_cell_volume   168.43868591
_cell_formula_units_Z   8
loop_
 _symmetry_equiv_pos_site_id
 _symmetry_equiv_pos_as_xyz
  1  'x, y, z'
loop_
 _atom_site_type_symbol
 _atom_site_label
 _atom_site_symmetry_multiplicity
 _atom_site_fract_x
 _atom_site_fract_y
 _atom_site_fract_z
 _atom_site_occupancy
  Si  Si0  1  0.75753800  0.97965300  0.11753900  1
  Si  Si1  1  0.44746700  0.79547800  0.74350800  1
  Si  Si2  1  0.75544600  0.42525000  0.30822300  1
  Si  Si3  1  0.06643600  0.78630100  0.89395900  1
  Si  Si4  1  0.45186800  0.77460500  0.24569000  1
  Si  Si5  1  0.75136900  0.44131000  0.65243200  1
  Si  Si6  1  0.05103400  0.78127400  0.39039000  1
  Si  Si7  1  0.75140900  0.00098300  0.62596900  1
# generated using pymatgen
data_Si
_symmetry_space_group_name_H-M   'P 1'
_cell_length_a   5.04702600
_cell_length_b   5.43281360
_cell_length_c   6.90227929
_cell_angle_alpha   109.53844713
_cell_angle_beta   109.19935442
_cell_angle_gamma   83.80059797
_symmetry_Int_Tables_number   1
_chemical_formula_structural   Si
_chemical_formula_sum   Si8
_cell_volume   168.43868591
_cell_formula_units_Z   8
loop_
 _symmetry_equiv_pos_site_id
 _symmetry_equiv_pos_as_xyz
  1  'x, y, z'
loop_
 _atom_site_type_symbol
 _atom_site_label
 _atom_site_symmetry_multiplicity
 _atom_site_fract_x
 _atom_site_fract_y
 _atom_site_fract_z
 _atom_site_occupancy
  Si  Si0  1  0.75753800  0.97965300  0.11753900  1
  Si  Si1  1  0.44746700  0.79547800  0.74350800  1
  Si  Si2  1  0.75544600  0.42525000  0.30822300  1
  Si  Si3  1  0.06643600  0.78630100  0.89395900  1
  Si  Si4  1  0.45186800  0.77460500  0.24569000  1
  Si  Si5  1  0.75136900  0.44131000  0.65243200  1
  Si  Si6  1  0.05103400  0.78127400  0.39039000  1
  Si  Si7  1  0.75140900  0.00098300  0.62596900  1
# generated using pymatgen
data_Si
_symmetry_space_group_name_H-M   'P 1'
_cell_length_a   5.04702600
_cell_length_b   5.43281360
_cell_length_c   6.90227929
_cell_angle_alpha   109.53844713
_cell_angle_beta   109.19935442
_cell_angle_gamma   83.80059797
_symmetry_Int_Tables_number   1
_chemical_formula_structural   Si
_chemical_formula_sum   Si8
_cell_volume   168.43868591
_cell_formula_units_Z   8
loop_
 _symmetry_equiv_pos_site_id
 _symmetry_equiv_pos_as_xyz
  1  'x, y, z'
loop_
 _atom_site_type_symbol
 _atom_site_label
 _atom_site_symmetry_multiplicity
 _atom_site_fract_x
 _atom_site_fract_y
 _atom_site_fract_z
 _atom_site_occupancy
  Si  Si0  1  0.75753800  0.97965300  0.11753900  1
  Si  Si1  1  0.44746700  0.79547800  0.74350800  1
  Si  Si2  1  0.75544600  0.42525000  0.30822300  1
  Si  Si3  1  0.06643600  0.78630100  0.89395900  1
  Si  Si4  1  0.45186800  0.77460500  0.24569000  1
  Si  Si5  1  0.75136900  0.44131000  0.65243200  1
  Si  Si6  1  0.05103400  0.78127400  0.39039000  1
  Si  Si7  1  0.75140900  0.00098300  0.62596900  1
# generated using pymatgen
data_Si
_symmetry_space_group_name_H-M   'P 1'
_cell_length_a   5.04702600
_cell_length_b   5.43281360
_cell_length_c   6.90227929
_cell_angle_alpha   109.53844713
_cell_angle_beta   109.19935442
_cell_angle_gamma   83.80059797
_symmetry_Int_Tables_number   1
_chemical_formula_structural   Si
_chemical_formula_sum   Si8
_cell_volume   168.43868591
_cell_formula_units_Z   8
loop_
 _symmetry_equiv_pos_site_id
 _symmetry_equiv_pos_as_xyz
  1  'x, y, z'
loop_
 _atom_site_type_symbol
 _atom_site_label
 _atom_site_symmetry_multiplicity
 _atom_site_fract_x
 _atom_site_fract_y
 _atom_site_fract_z
 _atom_site_occupancy
  Si  Si0  1  0.75753800  0.97965300  0.11753900  1
  Si  Si1  1  0.44746700  0.79547800  0.74350800  1
  Si  Si2  1  0.75544600  0.42525000  0.30822300  1
  Si  Si3  1  0.06643600  0.78630100  0.89395900  1
  Si  Si4  1  0.45186800  0.77460500  0.24569000  1
  Si  Si5  1  0.75136900  0.44131000  0.65243200  1
  Si  Si6  1  0.05103400  0.78127400  0.39039000  1
  Si  Si7  1  0.75140900  0.00098300  0.62596900  1
