# generated using pymatgen
data_Ge
_symmetry_space_group_name_H-M   'P 1'
_cell_length_a   10.92736940
_cell_length_b   10.92736940
_cell_length_c   10.92736940
_cell_angle_alpha   60.00000000
_cell_angle_beta   60.00000000
_cell_angle_gamma   60.00000000
_symmetry_Int_Tables_number   1
_chemical_formula_structural   Ge
_chemical_formula_sum   Ge34
_cell_volume   922.63914295
_cell_formula_units_Z   34
loop_
 _symmetry_equiv_pos_site_id
 _symmetry_equiv_pos_as_xyz
  1  'x, y, z'
loop_
 _atom_site_type_symbol
 _atom_site_label
 _atom_site_symmetry_multiplicity
 _atom_site_fract_x
 _atom_site_fract_y
 _atom_site_fract_z
 _atom_site_occupancy
  Ge  Ge0  1  0.50000000  0.50000000  0.50000000  1
  Ge  Ge1  1  0.75000000  0.75000000  0.75000000  1
  Ge  Ge2  1  0.47371500  0.84209500  0.84209500  1
  Ge  Ge3  1  0.84209500  0.47371500  0.84209500  1
  Ge  Ge4  1  0.84209500  0.84209500  0.47371500  1
  Ge  Ge5  1  0.84209500  0.84209500  0.84209500  1
  Ge  Ge6  1  0.77628500  0.40790500  0.40790500  1
  Ge  Ge7  1  0.40790500  0.77628500  0.40790500  1
  Ge  Ge8  1  0.40790500  0.40790500  0.77628500  1
  Ge  Ge9  1  0.40790500  0.40790500  0.40790500  1
  Ge  Ge10  1  0.38934400  0.99545300  0.99545300  1
  Ge  Ge11  1  0.99545300  0.38934400  0.61974900  1
  Ge  Ge12  1  0.99545300  0.61974900  0.38934400  1
  Ge  Ge13  1  0.61974900  0.99545300  0.99545300  1
  Ge  Ge14  1  0.99545300  0.99545300  0.38934400  1
  Ge  Ge15  1  0.38934400  0.61974900  0.99545300  1
  Ge  Ge16  1  0.61974900  0.38934400  0.99545300  1
  Ge  Ge17  1  0.99545300  0.99545300  0.61974900  1
  Ge  Ge18  1  0.99545300  0.38934400  0.99545300  1
  Ge  Ge19  1  0.61974900  0.99545300  0.38934400  1
  Ge  Ge20  1  0.38934400  0.99545300  0.61974900  1
  Ge  Ge21  1  0.99545300  0.61974900  0.99545300  1
  Ge  Ge22  1  0.86065600  0.25454700  0.25454700  1
  Ge  Ge23  1  0.25454700  0.86065600  0.63025100  1
  Ge  Ge24  1  0.25454700  0.63025100  0.86065600  1
  Ge  Ge25  1  0.63025100  0.25454700  0.25454700  1
  Ge  Ge26  1  0.25454700  0.25454700  0.86065600  1
  Ge  Ge27  1  0.86065600  0.63025100  0.25454700  1
  Ge  Ge28  1  0.63025100  0.86065600  0.25454700  1
  Ge  Ge29  1  0.25454700  0.25454700  0.63025100  1
  Ge  Ge30  1  0.25454700  0.86065600  0.25454700  1
  Ge  Ge31  1  0.63025100  0.25454700  0.86065600  1
  Ge  Ge32  1  0.86065600  0.25454700  0.63025100  1
  Ge  Ge33  1  0.25454700  0.63025100  0.25454700  1
# generated using pymatgen
data_Ge
_symmetry_space_group_name_H-M   'P 1'
_cell_length_a   10.92736940
_cell_length_b   10.92736940
_cell_length_c   10.92736940
_cell_angle_alpha   60.00000000
_cell_angle_beta   60.00000000
_cell_angle_gamma   60.00000000
_symmetry_Int_Tables_number   1
_chemical_formula_structural   Ge
_chemical_formula_sum   Ge34
_cell_volume   922.63914295
_cell_formula_units_Z   34
loop_
 _symmetry_equiv_pos_site_id
 _symmetry_equiv_pos_as_xyz
  1  'x, y, z'
loop_
 _atom_site_type_symbol
 _atom_site_label
 _atom_site_symmetry_multiplicity
 _atom_site_fract_x
 _atom_site_fract_y
 _atom_site_fract_z
 _atom_site_occupancy
  Ge  Ge0  1  0.50000000  0.50000000  0.50000000  1
  Ge  Ge1  1  0.75000000  0.75000000  0.75000000  1
  Ge  Ge2  1  0.47371500  0.84209500  0.84209500  1
  Ge  Ge3  1  0.84209500  0.47371500  0.84209500  1
  Ge  Ge4  1  0.84209500  0.84209500  0.47371500  1
  Ge  Ge5  1  0.84209500  0.84209500  0.84209500  1
  Ge  Ge6  1  0.77628500  0.40790500  0.40790500  1
  Ge  Ge7  1  0.40790500  0.77628500  0.40790500  1
  Ge  Ge8  1  0.40790500  0.40790500  0.77628500  1
  Ge  Ge9  1  0.40790500  0.40790500  0.40790500  1
  Ge  Ge10  1  0.38934400  0.99545300  0.99545300  1
  Ge  Ge11  1  0.99545300  0.38934400  0.61974900  1
  Ge  Ge12  1  0.99545300  0.61974900  0.38934400  1
  Ge  Ge13  1  0.61974900  0.99545300  0.99545300  1
  Ge  Ge14  1  0.99545300  0.99545300  0.38934400  1
  Ge  Ge15  1  0.38934400  0.61974900  0.99545300  1
  Ge  Ge16  1  0.61974900  0.38934400  0.99545300  1
  Ge  Ge17  1  0.99545300  0.99545300  0.61974900  1
  Ge  Ge18  1  0.99545300  0.38934400  0.99545300  1
  Ge  Ge19  1  0.61974900  0.99545300  0.38934400  1
  Ge  Ge20  1  0.38934400  0.99545300  0.61974900  1
  Ge  Ge21  1  0.99545300  0.61974900  0.99545300  1
  Ge  Ge22  1  0.86065600  0.25454700  0.25454700  1
  Ge  Ge23  1  0.25454700  0.86065600  0.63025100  1
  Ge  Ge24  1  0.25454700  0.63025100  0.86065600  1
  Ge  Ge25  1  0.63025100  0.25454700  0.25454700  1
  Ge  Ge26  1  0.25454700  0.25454700  0.86065600  1
  Ge  Ge27  1  0.86065600  0.63025100  0.25454700  1
  Ge  Ge28  1  0.63025100  0.86065600  0.25454700  1
  Ge  Ge29  1  0.25454700  0.25454700  0.63025100  1
  Ge  Ge30  1  0.25454700  0.86065600  0.25454700  1
  Ge  Ge31  1  0.63025100  0.25454700  0.86065600  1
  Ge  Ge32  1  0.86065600  0.25454700  0.63025100  1
  Ge  Ge33  1  0.25454700  0.63025100  0.25454700  1
# generated using pymatgen
data_Ge
_symmetry_space_group_name_H-M   'P 1'
_cell_length_a   10.92736940
_cell_length_b   10.92736940
_cell_length_c   10.92736940
_cell_angle_alpha   60.00000000
_cell_angle_beta   60.00000000
_cell_angle_gamma   60.00000000
_symmetry_Int_Tables_number   1
_chemical_formula_structural   Ge
_chemical_formula_sum   Ge34
_cell_volume   922.63914295
_cell_formula_units_Z   34
loop_
 _symmetry_equiv_pos_site_id
 _symmetry_equiv_pos_as_xyz
  1  'x, y, z'
loop_
 _atom_site_type_symbol
 _atom_site_label
 _atom_site_symmetry_multiplicity
 _atom_site_fract_x
 _atom_site_fract_y
 _atom_site_fract_z
 _atom_site_occupancy
  Ge  Ge0  1  0.50000000  0.50000000  0.50000000  1
  Ge  Ge1  1  0.75000000  0.75000000  0.75000000  1
  Ge  Ge2  1  0.47371500  0.84209500  0.84209500  1
  Ge  Ge3  1  0.84209500  0.47371500  0.84209500  1
  Ge  Ge4  1  0.84209500  0.84209500  0.47371500  1
  Ge  Ge5  1  0.84209500  0.84209500  0.84209500  1
  Ge  Ge6  1  0.77628500  0.40790500  0.40790500  1
  Ge  Ge7  1  0.40790500  0.77628500  0.40790500  1
  Ge  Ge8  1  0.40790500  0.40790500  0.77628500  1
  Ge  Ge9  1  0.40790500  0.40790500  0.40790500  1
  Ge  Ge10  1  0.38934400  0.99545300  0.99545300  1
  Ge  Ge11  1  0.99545300  0.38934400  0.61974900  1
  Ge  Ge12  1  0.99545300  0.61974900  0.38934400  1
  Ge  Ge13  1  0.61974900  0.99545300  0.99545300  1
  Ge  Ge14  1  0.99545300  0.99545300  0.38934400  1
  Ge  Ge15  1  0.38934400  0.61974900  0.99545300  1
  Ge  Ge16  1  0.61974900  0.38934400  0.99545300  1
  Ge  Ge17  1  0.99545300  0.99545300  0.61974900  1
  Ge  Ge18  1  0.99545300  0.38934400  0.99545300  1
  Ge  Ge19  1  0.61974900  0.99545300  0.38934400  1
  Ge  Ge20  1  0.38934400  0.99545300  0.61974900  1
  Ge  Ge21  1  0.99545300  0.61974900  0.99545300  1
  Ge  Ge22  1  0.86065600  0.25454700  0.25454700  1
  Ge  Ge23  1  0.25454700  0.86065600  0.63025100  1
  Ge  Ge24  1  0.25454700  0.63025100  0.86065600  1
  Ge  Ge25  1  0.63025100  0.25454700  0.25454700  1
  Ge  Ge26  1  0.25454700  0.25454700  0.86065600  1
  Ge  Ge27  1  0.86065600  0.63025100  0.25454700  1
  Ge  Ge28  1  0.63025100  0.86065600  0.25454700  1
  Ge  Ge29  1  0.25454700  0.25454700  0.63025100  1
  Ge  Ge30  1  0.25454700  0.86065600  0.25454700  1
  Ge  Ge31  1  0.63025100  0.25454700  0.86065600  1
  Ge  Ge32  1  0.86065600  0.25454700  0.63025100  1
  Ge  Ge33  1  0.25454700  0.63025100  0.25454700  1
# generated using pymatgen
data_Ge
_symmetry_space_group_name_H-M   'P 1'
_cell_length_a   10.92736940
_cell_length_b   10.92736940
_cell_length_c   10.92736940
_cell_angle_alpha   60.00000000
_cell_angle_beta   60.00000000
_cell_angle_gamma   60.00000000
_symmetry_Int_Tables_number   1
_chemical_formula_structural   Ge
_chemical_formula_sum   Ge34
_cell_volume   922.63914295
_cell_formula_units_Z   34
loop_
 _symmetry_equiv_pos_site_id
 _symmetry_equiv_pos_as_xyz
  1  'x, y, z'
loop_
 _atom_site_type_symbol
 _atom_site_label
 _atom_site_symmetry_multiplicity
 _atom_site_fract_x
 _atom_site_fract_y
 _atom_site_fract_z
 _atom_site_occupancy
  Ge  Ge0  1  0.50000000  0.50000000  0.50000000  1
  Ge  Ge1  1  0.75000000  0.75000000  0.75000000  1
  Ge  Ge2  1  0.47371500  0.84209500  0.84209500  1
  Ge  Ge3  1  0.84209500  0.47371500  0.84209500  1
  Ge  Ge4  1  0.84209500  0.84209500  0.47371500  1
  Ge  Ge5  1  0.84209500  0.84209500  0.84209500  1
  Ge  Ge6  1  0.77628500  0.40790500  0.40790500  1
  Ge  Ge7  1  0.40790500  0.77628500  0.40790500  1
  Ge  Ge8  1  0.40790500  0.40790500  0.77628500  1
  Ge  Ge9  1  0.40790500  0.40790500  0.40790500  1
  Ge  Ge10  1  0.38934400  0.99545300  0.99545300  1
  Ge  Ge11  1  0.99545300  0.38934400  0.61974900  1
  Ge  Ge12  1  0.99545300  0.61974900  0.38934400  1
  Ge  Ge13  1  0.61974900  0.99545300  0.99545300  1
  Ge  Ge14  1  0.99545300  0.99545300  0.38934400  1
  Ge  Ge15  1  0.38934400  0.61974900  0.99545300  1
  Ge  Ge16  1  0.61974900  0.38934400  0.99545300  1
  Ge  Ge17  1  0.99545300  0.99545300  0.61974900  1
  Ge  Ge18  1  0.99545300  0.38934400  0.99545300  1
  Ge  Ge19  1  0.61974900  0.99545300  0.38934400  1
  Ge  Ge20  1  0.38934400  0.99545300  0.61974900  1
  Ge  Ge21  1  0.99545300  0.61974900  0.99545300  1
  Ge  Ge22  1  0.86065600  0.25454700  0.25454700  1
  Ge  Ge23  1  0.25454700  0.86065600  0.63025100  1
  Ge  Ge24  1  0.25454700  0.63025100  0.86065600  1
  Ge  Ge25  1  0.63025100  0.25454700  0.25454700  1
  Ge  Ge26  1  0.25454700  0.25454700  0.86065600  1
  Ge  Ge27  1  0.86065600  0.63025100  0.25454700  1
  Ge  Ge28  1  0.63025100  0.86065600  0.25454700  1
  Ge  Ge29  1  0.25454700  0.25454700  0.63025100  1
  Ge  Ge30  1  0.25454700  0.86065600  0.25454700  1
  Ge  Ge31  1  0.63025100  0.25454700  0.86065600  1
  Ge  Ge32  1  0.86065600  0.25454700  0.63025100  1
  Ge  Ge33  1  0.25454700  0.63025100  0.25454700  1
# generated using pymatgen
data_Ge
_symmetry_space_group_name_H-M   'P 1'
_cell_length_a   10.92736940
_cell_length_b   10.92736940
_cell_length_c   10.92736940
_cell_angle_alpha   60.00000000
_cell_angle_beta   60.00000000
_cell_angle_gamma   60.00000000
_symmetry_Int_Tables_number   1
_chemical_formula_structural   Ge
_chemical_formula_sum   Ge34
_cell_volume   922.63914295
_cell_formula_units_Z   34
loop_
 _symmetry_equiv_pos_site_id
 _symmetry_equiv_pos_as_xyz
  1  'x, y, z'
loop_
 _atom_site_type_symbol
 _atom_site_label
 _atom_site_symmetry_multiplicity
 _atom_site_fract_x
 _atom_site_fract_y
 _atom_site_fract_z
 _atom_site_occupancy
  Ge  Ge0  1  0.50000000  0.50000000  0.50000000  1
  Ge  Ge1  1  0.75000000  0.75000000  0.75000000  1
  Ge  Ge2  1  0.47371500  0.84209500  0.84209500  1
  Ge  Ge3  1  0.84209500  0.47371500  0.84209500  1
  Ge  Ge4  1  0.84209500  0.84209500  0.47371500  1
  Ge  Ge5  1  0.84209500  0.84209500  0.84209500  1
  Ge  Ge6  1  0.77628500  0.40790500  0.40790500  1
  Ge  Ge7  1  0.40790500  0.77628500  0.40790500  1
  Ge  Ge8  1  0.40790500  0.40790500  0.77628500  1
  Ge  Ge9  1  0.40790500  0.40790500  0.40790500  1
  Ge  Ge10  1  0.38934400  0.99545300  0.99545300  1
  Ge  Ge11  1  0.99545300  0.38934400  0.61974900  1
  Ge  Ge12  1  0.99545300  0.61974900  0.38934400  1
  Ge  Ge13  1  0.61974900  0.99545300  0.99545300  1
  Ge  Ge14  1  0.99545300  0.99545300  0.38934400  1
  Ge  Ge15  1  0.38934400  0.61974900  0.99545300  1
  Ge  Ge16  1  0.61974900  0.38934400  0.99545300  1
  Ge  Ge17  1  0.99545300  0.99545300  0.61974900  1
  Ge  Ge18  1  0.99545300  0.38934400  0.99545300  1
  Ge  Ge19  1  0.61974900  0.99545300  0.38934400  1
  Ge  Ge20  1  0.38934400  0.99545300  0.61974900  1
  Ge  Ge21  1  0.99545300  0.61974900  0.99545300  1
  Ge  Ge22  1  0.86065600  0.25454700  0.25454700  1
  Ge  Ge23  1  0.25454700  0.86065600  0.63025100  1
  Ge  Ge24  1  0.25454700  0.63025100  0.86065600  1
  Ge  Ge25  1  0.63025100  0.25454700  0.25454700  1
  Ge  Ge26  1  0.25454700  0.25454700  0.86065600  1
  Ge  Ge27  1  0.86065600  0.63025100  0.25454700  1
  Ge  Ge28  1  0.63025100  0.86065600  0.25454700  1
  Ge  Ge29  1  0.25454700  0.25454700  0.63025100  1
  Ge  Ge30  1  0.25454700  0.86065600  0.25454700  1
  Ge  Ge31  1  0.63025100  0.25454700  0.86065600  1
  Ge  Ge32  1  0.86065600  0.25454700  0.63025100  1
  Ge  Ge33  1  0.25454700  0.63025100  0.25454700  1
# generated using pymatgen
data_Ge
_symmetry_space_group_name_H-M   'P 1'
_cell_length_a   10.92736940
_cell_length_b   10.92736940
_cell_length_c   10.92736940
_cell_angle_alpha   60.00000000
_cell_angle_beta   60.00000000
_cell_angle_gamma   60.00000000
_symmetry_Int_Tables_number   1
_chemical_formula_structural   Ge
_chemical_formula_sum   Ge34
_cell_volume   922.63914295
_cell_formula_units_Z   34
loop_
 _symmetry_equiv_pos_site_id
 _symmetry_equiv_pos_as_xyz
  1  'x, y, z'
loop_
 _atom_site_type_symbol
 _atom_site_label
 _atom_site_symmetry_multiplicity
 _atom_site_fract_x
 _atom_site_fract_y
 _atom_site_fract_z
 _atom_site_occupancy
  Ge  Ge0  1  0.50000000  0.50000000  0.50000000  1
  Ge  Ge1  1  0.75000000  0.75000000  0.75000000  1
  Ge  Ge2  1  0.47371500  0.84209500  0.84209500  1
  Ge  Ge3  1  0.84209500  0.47371500  0.84209500  1
  Ge  Ge4  1  0.84209500  0.84209500  0.47371500  1
  Ge  Ge5  1  0.84209500  0.84209500  0.84209500  1
  Ge  Ge6  1  0.77628500  0.40790500  0.40790500  1
  Ge  Ge7  1  0.40790500  0.77628500  0.40790500  1
  Ge  Ge8  1  0.40790500  0.40790500  0.77628500  1
  Ge  Ge9  1  0.40790500  0.40790500  0.40790500  1
  Ge  Ge10  1  0.38934400  0.99545300  0.99545300  1
  Ge  Ge11  1  0.99545300  0.38934400  0.61974900  1
  Ge  Ge12  1  0.99545300  0.61974900  0.38934400  1
  Ge  Ge13  1  0.61974900  0.99545300  0.99545300  1
  Ge  Ge14  1  0.99545300  0.99545300  0.38934400  1
  Ge  Ge15  1  0.38934400  0.61974900  0.99545300  1
  Ge  Ge16  1  0.61974900  0.38934400  0.99545300  1
  Ge  Ge17  1  0.99545300  0.99545300  0.61974900  1
  Ge  Ge18  1  0.99545300  0.38934400  0.99545300  1
  Ge  Ge19  1  0.61974900  0.99545300  0.38934400  1
  Ge  Ge20  1  0.38934400  0.99545300  0.61974900  1
  Ge  Ge21  1  0.99545300  0.61974900  0.99545300  1
  Ge  Ge22  1  0.86065600  0.25454700  0.25454700  1
  Ge  Ge23  1  0.25454700  0.86065600  0.63025100  1
  Ge  Ge24  1  0.25454700  0.63025100  0.86065600  1
  Ge  Ge25  1  0.63025100  0.25454700  0.25454700  1
  Ge  Ge26  1  0.25454700  0.25454700  0.86065600  1
  Ge  Ge27  1  0.86065600  0.63025100  0.25454700  1
  Ge  Ge28  1  0.63025100  0.86065600  0.25454700  1
  Ge  Ge29  1  0.25454700  0.25454700  0.63025100  1
  Ge  Ge30  1  0.25454700  0.86065600  0.25454700  1
  Ge  Ge31  1  0.63025100  0.25454700  0.86065600  1
  Ge  Ge32  1  0.86065600  0.25454700  0.63025100  1
  Ge  Ge33  1  0.25454700  0.63025100  0.25454700  1
