# generated using pymatgen
data_Si
_symmetry_space_group_name_H-M   'P 1'
_cell_length_a   10.17741100
_cell_length_b   10.17741100
_cell_length_c   24.22729500
_cell_angle_alpha   90.00000000
_cell_angle_beta   90.00000000
_cell_angle_gamma   90.00000000
_symmetry_Int_Tables_number   1
_chemical_formula_structural   Si
_chemical_formula_sum   Si106
_cell_volume   2509.45581861
_cell_formula_units_Z   106
loop_
 _symmetry_equiv_pos_site_id
 _symmetry_equiv_pos_as_xyz
  1  'x, y, z'
loop_
 _atom_site_type_symbol
 _atom_site_label
 _atom_site_symmetry_multiplicity
 _atom_site_fract_x
 _atom_site_fract_y
 _atom_site_fract_z
 _atom_site_occupancy
  Si  Si0  1  0.18424500  0.31675300  0.97126400  1
  Si  Si1  1  0.81575500  0.68324700  0.97126400  1
  Si  Si2  1  0.68424500  0.81675300  0.52873600  1
  Si  Si3  1  0.31575500  0.18324700  0.52873600  1
  Si  Si4  1  0.81575500  0.31675300  0.97126400  1
  Si  Si5  1  0.18424500  0.68324700  0.97126400  1
  Si  Si6  1  0.31575500  0.81675300  0.52873600  1
  Si  Si7  1  0.68424500  0.18324700  0.52873600  1
  Si  Si8  1  0.68324700  0.18424500  0.02873600  1
  Si  Si9  1  0.31675300  0.81575500  0.02873600  1
  Si  Si10  1  0.18324700  0.68424500  0.47126400  1
  Si  Si11  1  0.81675300  0.31575500  0.47126400  1
  Si  Si12  1  0.31675300  0.18424500  0.02873600  1
  Si  Si13  1  0.68324700  0.81575500  0.02873600  1
  Si  Si14  1  0.81675300  0.68424500  0.47126400  1
  Si  Si15  1  0.18324700  0.31575500  0.47126400  1
  Si  Si16  1  0.37793300  0.29417800  0.11137900  1
  Si  Si17  1  0.62206700  0.70582200  0.11137900  1
  Si  Si18  1  0.87793300  0.79417800  0.38862100  1
  Si  Si19  1  0.12206700  0.20582200  0.38862100  1
  Si  Si20  1  0.62206700  0.29417800  0.11137900  1
  Si  Si21  1  0.37793300  0.70582200  0.11137900  1
  Si  Si22  1  0.12206700  0.79417800  0.38862100  1
  Si  Si23  1  0.87793300  0.20582200  0.38862100  1
  Si  Si24  1  0.70582200  0.37793300  0.88862100  1
  Si  Si25  1  0.29417800  0.62206700  0.88862100  1
  Si  Si26  1  0.20582200  0.87793300  0.61137900  1
  Si  Si27  1  0.79417800  0.12206700  0.61137900  1
  Si  Si28  1  0.29417800  0.37793300  0.88862100  1
  Si  Si29  1  0.70582200  0.62206700  0.88862100  1
  Si  Si30  1  0.79417800  0.87793300  0.61137900  1
  Si  Si31  1  0.20582200  0.12206700  0.61137900  1
  Si  Si32  1  0.25470600  0.17965600  0.18317300  1
  Si  Si33  1  0.74529400  0.82034400  0.18317300  1
  Si  Si34  1  0.75470600  0.67965600  0.31682700  1
  Si  Si35  1  0.24529400  0.32034400  0.31682700  1
  Si  Si36  1  0.74529400  0.17965600  0.18317300  1
  Si  Si37  1  0.25470600  0.82034400  0.18317300  1
  Si  Si38  1  0.24529400  0.67965600  0.31682700  1
  Si  Si39  1  0.75470600  0.32034400  0.31682700  1
  Si  Si40  1  0.82034400  0.25470600  0.81682700  1
  Si  Si41  1  0.17965600  0.74529400  0.81682700  1
  Si  Si42  1  0.32034400  0.75470600  0.68317300  1
  Si  Si43  1  0.67965600  0.24529400  0.68317300  1
  Si  Si44  1  0.17965600  0.25470600  0.81682700  1
  Si  Si45  1  0.82034400  0.74529400  0.81682700  1
  Si  Si46  1  0.67965600  0.75470600  0.68317300  1
  Si  Si47  1  0.32034400  0.24529400  0.68317300  1
  Si  Si48  1  0.11732200  0.31952900  0.23489700  1
  Si  Si49  1  0.88267800  0.68047100  0.23489700  1
  Si  Si50  1  0.61732200  0.81952900  0.26510300  1
  Si  Si51  1  0.38267800  0.18047100  0.26510300  1
  Si  Si52  1  0.88267800  0.31952900  0.23489700  1
  Si  Si53  1  0.11732200  0.68047100  0.23489700  1
  Si  Si54  1  0.38267800  0.81952900  0.26510300  1
  Si  Si55  1  0.61732200  0.18047100  0.26510300  1
  Si  Si56  1  0.68047100  0.11732200  0.76510300  1
  Si  Si57  1  0.31952900  0.88267800  0.76510300  1
  Si  Si58  1  0.18047100  0.61732200  0.73489700  1
  Si  Si59  1  0.81952900  0.38267800  0.73489700  1
  Si  Si60  1  0.31952900  0.11732200  0.76510300  1
  Si  Si61  1  0.68047100  0.88267800  0.76510300  1
  Si  Si62  1  0.81952900  0.61732200  0.73489700  1
  Si  Si63  1  0.18047100  0.38267800  0.73489700  1
  Si  Si64  1  0.18988400  0.00000000  0.05387800  1
  Si  Si65  1  0.81011600  0.00000000  0.05387800  1
  Si  Si66  1  0.68988400  0.50000000  0.44612200  1
  Si  Si67  1  0.31011600  0.50000000  0.44612200  1
  Si  Si68  1  0.00000000  0.18988400  0.94612200  1
  Si  Si69  1  0.00000000  0.81011600  0.94612200  1
  Si  Si70  1  0.50000000  0.68988400  0.55387800  1
  Si  Si71  1  0.50000000  0.31011600  0.55387800  1
  Si  Si72  1  0.12999900  0.00000000  0.14780600  1
  Si  Si73  1  0.87000100  0.00000000  0.14780600  1
  Si  Si74  1  0.62999900  0.50000000  0.35219400  1
  Si  Si75  1  0.37000100  0.50000000  0.35219400  1
  Si  Si76  1  0.00000000  0.12999900  0.85219400  1
  Si  Si77  1  0.00000000  0.87000100  0.85219400  1
  Si  Si78  1  0.50000000  0.62999900  0.64780600  1
  Si  Si79  1  0.50000000  0.37000100  0.64780600  1
  Si  Si80  1  0.11955000  0.50000000  0.02443200  1
  Si  Si81  1  0.88045000  0.50000000  0.02443200  1
  Si  Si82  1  0.61955000  0.00000000  0.47556800  1
  Si  Si83  1  0.38045000  0.00000000  0.47556800  1
  Si  Si84  1  0.50000000  0.11955000  0.97556800  1
  Si  Si85  1  0.50000000  0.88045000  0.97556800  1
  Si  Si86  1  0.00000000  0.61955000  0.52443200  1
  Si  Si87  1  0.00000000  0.38045000  0.52443200  1
  Si  Si88  1  0.26435900  0.50000000  0.10321100  1
  Si  Si89  1  0.73564100  0.50000000  0.10321100  1
  Si  Si90  1  0.76435900  0.00000000  0.39678900  1
  Si  Si91  1  0.23564100  0.00000000  0.39678900  1
  Si  Si92  1  0.50000000  0.26435900  0.89678900  1
  Si  Si93  1  0.50000000  0.73564100  0.89678900  1
  Si  Si94  1  0.00000000  0.76435900  0.60321100  1
  Si  Si95  1  0.00000000  0.23564100  0.60321100  1
  Si  Si96  1  0.11618200  0.50000000  0.17683600  1
  Si  Si97  1  0.88381800  0.50000000  0.17683600  1
  Si  Si98  1  0.61618200  0.00000000  0.32316400  1
  Si  Si99  1  0.38381800  0.00000000  0.32316400  1
  Si  Si100  1  0.50000000  0.11618200  0.82316400  1
  Si  Si101  1  0.50000000  0.88381800  0.82316400  1
  Si  Si102  1  0.00000000  0.61618200  0.67683600  1
  Si  Si103  1  0.00000000  0.38381800  0.67683600  1
  Si  Si104  1  0.50000000  0.50000000  0.50000000  1
  Si  Si105  1  0.00000000  0.00000000  0.00000000  1
# generated using pymatgen
data_Si
_symmetry_space_group_name_H-M   'P 1'
_cell_length_a   10.17741100
_cell_length_b   10.17741100
_cell_length_c   24.22729500
_cell_angle_alpha   90.00000000
_cell_angle_beta   90.00000000
_cell_angle_gamma   90.00000000
_symmetry_Int_Tables_number   1
_chemical_formula_structural   Si
_chemical_formula_sum   Si106
_cell_volume   2509.45581861
_cell_formula_units_Z   106
loop_
 _symmetry_equiv_pos_site_id
 _symmetry_equiv_pos_as_xyz
  1  'x, y, z'
loop_
 _atom_site_type_symbol
 _atom_site_label
 _atom_site_symmetry_multiplicity
 _atom_site_fract_x
 _atom_site_fract_y
 _atom_site_fract_z
 _atom_site_occupancy
  Si  Si0  1  0.18424500  0.31675300  0.97126400  1
  Si  Si1  1  0.81575500  0.68324700  0.97126400  1
  Si  Si2  1  0.68424500  0.81675300  0.52873600  1
  Si  Si3  1  0.31575500  0.18324700  0.52873600  1
  Si  Si4  1  0.81575500  0.31675300  0.97126400  1
  Si  Si5  1  0.18424500  0.68324700  0.97126400  1
  Si  Si6  1  0.31575500  0.81675300  0.52873600  1
  Si  Si7  1  0.68424500  0.18324700  0.52873600  1
  Si  Si8  1  0.68324700  0.18424500  0.02873600  1
  Si  Si9  1  0.31675300  0.81575500  0.02873600  1
  Si  Si10  1  0.18324700  0.68424500  0.47126400  1
  Si  Si11  1  0.81675300  0.31575500  0.47126400  1
  Si  Si12  1  0.31675300  0.18424500  0.02873600  1
  Si  Si13  1  0.68324700  0.81575500  0.02873600  1
  Si  Si14  1  0.81675300  0.68424500  0.47126400  1
  Si  Si15  1  0.18324700  0.31575500  0.47126400  1
  Si  Si16  1  0.37793300  0.29417800  0.11137900  1
  Si  Si17  1  0.62206700  0.70582200  0.11137900  1
  Si  Si18  1  0.87793300  0.79417800  0.38862100  1
  Si  Si19  1  0.12206700  0.20582200  0.38862100  1
  Si  Si20  1  0.62206700  0.29417800  0.11137900  1
  Si  Si21  1  0.37793300  0.70582200  0.11137900  1
  Si  Si22  1  0.12206700  0.79417800  0.38862100  1
  Si  Si23  1  0.87793300  0.20582200  0.38862100  1
  Si  Si24  1  0.70582200  0.37793300  0.88862100  1
  Si  Si25  1  0.29417800  0.62206700  0.88862100  1
  Si  Si26  1  0.20582200  0.87793300  0.61137900  1
  Si  Si27  1  0.79417800  0.12206700  0.61137900  1
  Si  Si28  1  0.29417800  0.37793300  0.88862100  1
  Si  Si29  1  0.70582200  0.62206700  0.88862100  1
  Si  Si30  1  0.79417800  0.87793300  0.61137900  1
  Si  Si31  1  0.20582200  0.12206700  0.61137900  1
  Si  Si32  1  0.25470600  0.17965600  0.18317300  1
  Si  Si33  1  0.74529400  0.82034400  0.18317300  1
  Si  Si34  1  0.75470600  0.67965600  0.31682700  1
  Si  Si35  1  0.24529400  0.32034400  0.31682700  1
  Si  Si36  1  0.74529400  0.17965600  0.18317300  1
  Si  Si37  1  0.25470600  0.82034400  0.18317300  1
  Si  Si38  1  0.24529400  0.67965600  0.31682700  1
  Si  Si39  1  0.75470600  0.32034400  0.31682700  1
  Si  Si40  1  0.82034400  0.25470600  0.81682700  1
  Si  Si41  1  0.17965600  0.74529400  0.81682700  1
  Si  Si42  1  0.32034400  0.75470600  0.68317300  1
  Si  Si43  1  0.67965600  0.24529400  0.68317300  1
  Si  Si44  1  0.17965600  0.25470600  0.81682700  1
  Si  Si45  1  0.82034400  0.74529400  0.81682700  1
  Si  Si46  1  0.67965600  0.75470600  0.68317300  1
  Si  Si47  1  0.32034400  0.24529400  0.68317300  1
  Si  Si48  1  0.11732200  0.31952900  0.23489700  1
  Si  Si49  1  0.88267800  0.68047100  0.23489700  1
  Si  Si50  1  0.61732200  0.81952900  0.26510300  1
  Si  Si51  1  0.38267800  0.18047100  0.26510300  1
  Si  Si52  1  0.88267800  0.31952900  0.23489700  1
  Si  Si53  1  0.11732200  0.68047100  0.23489700  1
  Si  Si54  1  0.38267800  0.81952900  0.26510300  1
  Si  Si55  1  0.61732200  0.18047100  0.26510300  1
  Si  Si56  1  0.68047100  0.11732200  0.76510300  1
  Si  Si57  1  0.31952900  0.88267800  0.76510300  1
  Si  Si58  1  0.18047100  0.61732200  0.73489700  1
  Si  Si59  1  0.81952900  0.38267800  0.73489700  1
  Si  Si60  1  0.31952900  0.11732200  0.76510300  1
  Si  Si61  1  0.68047100  0.88267800  0.76510300  1
  Si  Si62  1  0.81952900  0.61732200  0.73489700  1
  Si  Si63  1  0.18047100  0.38267800  0.73489700  1
  Si  Si64  1  0.18988400  0.00000000  0.05387800  1
  Si  Si65  1  0.81011600  0.00000000  0.05387800  1
  Si  Si66  1  0.68988400  0.50000000  0.44612200  1
  Si  Si67  1  0.31011600  0.50000000  0.44612200  1
  Si  Si68  1  0.00000000  0.18988400  0.94612200  1
  Si  Si69  1  0.00000000  0.81011600  0.94612200  1
  Si  Si70  1  0.50000000  0.68988400  0.55387800  1
  Si  Si71  1  0.50000000  0.31011600  0.55387800  1
  Si  Si72  1  0.12999900  0.00000000  0.14780600  1
  Si  Si73  1  0.87000100  0.00000000  0.14780600  1
  Si  Si74  1  0.62999900  0.50000000  0.35219400  1
  Si  Si75  1  0.37000100  0.50000000  0.35219400  1
  Si  Si76  1  0.00000000  0.12999900  0.85219400  1
  Si  Si77  1  0.00000000  0.87000100  0.85219400  1
  Si  Si78  1  0.50000000  0.62999900  0.64780600  1
  Si  Si79  1  0.50000000  0.37000100  0.64780600  1
  Si  Si80  1  0.11955000  0.50000000  0.02443200  1
  Si  Si81  1  0.88045000  0.50000000  0.02443200  1
  Si  Si82  1  0.61955000  0.00000000  0.47556800  1
  Si  Si83  1  0.38045000  0.00000000  0.47556800  1
  Si  Si84  1  0.50000000  0.11955000  0.97556800  1
  Si  Si85  1  0.50000000  0.88045000  0.97556800  1
  Si  Si86  1  0.00000000  0.61955000  0.52443200  1
  Si  Si87  1  0.00000000  0.38045000  0.52443200  1
  Si  Si88  1  0.26435900  0.50000000  0.10321100  1
  Si  Si89  1  0.73564100  0.50000000  0.10321100  1
  Si  Si90  1  0.76435900  0.00000000  0.39678900  1
  Si  Si91  1  0.23564100  0.00000000  0.39678900  1
  Si  Si92  1  0.50000000  0.26435900  0.89678900  1
  Si  Si93  1  0.50000000  0.73564100  0.89678900  1
  Si  Si94  1  0.00000000  0.76435900  0.60321100  1
  Si  Si95  1  0.00000000  0.23564100  0.60321100  1
  Si  Si96  1  0.11618200  0.50000000  0.17683600  1
  Si  Si97  1  0.88381800  0.50000000  0.17683600  1
  Si  Si98  1  0.61618200  0.00000000  0.32316400  1
  Si  Si99  1  0.38381800  0.00000000  0.32316400  1
  Si  Si100  1  0.50000000  0.11618200  0.82316400  1
  Si  Si101  1  0.50000000  0.88381800  0.82316400  1
  Si  Si102  1  0.00000000  0.61618200  0.67683600  1
  Si  Si103  1  0.00000000  0.38381800  0.67683600  1
  Si  Si104  1  0.50000000  0.50000000  0.50000000  1
  Si  Si105  1  0.00000000  0.00000000  0.00000000  1
# generated using pymatgen
data_Si
_symmetry_space_group_name_H-M   'P 1'
_cell_length_a   10.17741100
_cell_length_b   10.17741100
_cell_length_c   24.22729500
_cell_angle_alpha   90.00000000
_cell_angle_beta   90.00000000
_cell_angle_gamma   90.00000000
_symmetry_Int_Tables_number   1
_chemical_formula_structural   Si
_chemical_formula_sum   Si106
_cell_volume   2509.45581861
_cell_formula_units_Z   106
loop_
 _symmetry_equiv_pos_site_id
 _symmetry_equiv_pos_as_xyz
  1  'x, y, z'
loop_
 _atom_site_type_symbol
 _atom_site_label
 _atom_site_symmetry_multiplicity
 _atom_site_fract_x
 _atom_site_fract_y
 _atom_site_fract_z
 _atom_site_occupancy
  Si  Si0  1  0.18424500  0.31675300  0.97126400  1
  Si  Si1  1  0.81575500  0.68324700  0.97126400  1
  Si  Si2  1  0.68424500  0.81675300  0.52873600  1
  Si  Si3  1  0.31575500  0.18324700  0.52873600  1
  Si  Si4  1  0.81575500  0.31675300  0.97126400  1
  Si  Si5  1  0.18424500  0.68324700  0.97126400  1
  Si  Si6  1  0.31575500  0.81675300  0.52873600  1
  Si  Si7  1  0.68424500  0.18324700  0.52873600  1
  Si  Si8  1  0.68324700  0.18424500  0.02873600  1
  Si  Si9  1  0.31675300  0.81575500  0.02873600  1
  Si  Si10  1  0.18324700  0.68424500  0.47126400  1
  Si  Si11  1  0.81675300  0.31575500  0.47126400  1
  Si  Si12  1  0.31675300  0.18424500  0.02873600  1
  Si  Si13  1  0.68324700  0.81575500  0.02873600  1
  Si  Si14  1  0.81675300  0.68424500  0.47126400  1
  Si  Si15  1  0.18324700  0.31575500  0.47126400  1
  Si  Si16  1  0.37793300  0.29417800  0.11137900  1
  Si  Si17  1  0.62206700  0.70582200  0.11137900  1
  Si  Si18  1  0.87793300  0.79417800  0.38862100  1
  Si  Si19  1  0.12206700  0.20582200  0.38862100  1
  Si  Si20  1  0.62206700  0.29417800  0.11137900  1
  Si  Si21  1  0.37793300  0.70582200  0.11137900  1
  Si  Si22  1  0.12206700  0.79417800  0.38862100  1
  Si  Si23  1  0.87793300  0.20582200  0.38862100  1
  Si  Si24  1  0.70582200  0.37793300  0.88862100  1
  Si  Si25  1  0.29417800  0.62206700  0.88862100  1
  Si  Si26  1  0.20582200  0.87793300  0.61137900  1
  Si  Si27  1  0.79417800  0.12206700  0.61137900  1
  Si  Si28  1  0.29417800  0.37793300  0.88862100  1
  Si  Si29  1  0.70582200  0.62206700  0.88862100  1
  Si  Si30  1  0.79417800  0.87793300  0.61137900  1
  Si  Si31  1  0.20582200  0.12206700  0.61137900  1
  Si  Si32  1  0.25470600  0.17965600  0.18317300  1
  Si  Si33  1  0.74529400  0.82034400  0.18317300  1
  Si  Si34  1  0.75470600  0.67965600  0.31682700  1
  Si  Si35  1  0.24529400  0.32034400  0.31682700  1
  Si  Si36  1  0.74529400  0.17965600  0.18317300  1
  Si  Si37  1  0.25470600  0.82034400  0.18317300  1
  Si  Si38  1  0.24529400  0.67965600  0.31682700  1
  Si  Si39  1  0.75470600  0.32034400  0.31682700  1
  Si  Si40  1  0.82034400  0.25470600  0.81682700  1
  Si  Si41  1  0.17965600  0.74529400  0.81682700  1
  Si  Si42  1  0.32034400  0.75470600  0.68317300  1
  Si  Si43  1  0.67965600  0.24529400  0.68317300  1
  Si  Si44  1  0.17965600  0.25470600  0.81682700  1
  Si  Si45  1  0.82034400  0.74529400  0.81682700  1
  Si  Si46  1  0.67965600  0.75470600  0.68317300  1
  Si  Si47  1  0.32034400  0.24529400  0.68317300  1
  Si  Si48  1  0.11732200  0.31952900  0.23489700  1
  Si  Si49  1  0.88267800  0.68047100  0.23489700  1
  Si  Si50  1  0.61732200  0.81952900  0.26510300  1
  Si  Si51  1  0.38267800  0.18047100  0.26510300  1
  Si  Si52  1  0.88267800  0.31952900  0.23489700  1
  Si  Si53  1  0.11732200  0.68047100  0.23489700  1
  Si  Si54  1  0.38267800  0.81952900  0.26510300  1
  Si  Si55  1  0.61732200  0.18047100  0.26510300  1
  Si  Si56  1  0.68047100  0.11732200  0.76510300  1
  Si  Si57  1  0.31952900  0.88267800  0.76510300  1
  Si  Si58  1  0.18047100  0.61732200  0.73489700  1
  Si  Si59  1  0.81952900  0.38267800  0.73489700  1
  Si  Si60  1  0.31952900  0.11732200  0.76510300  1
  Si  Si61  1  0.68047100  0.88267800  0.76510300  1
  Si  Si62  1  0.81952900  0.61732200  0.73489700  1
  Si  Si63  1  0.18047100  0.38267800  0.73489700  1
  Si  Si64  1  0.18988400  0.00000000  0.05387800  1
  Si  Si65  1  0.81011600  0.00000000  0.05387800  1
  Si  Si66  1  0.68988400  0.50000000  0.44612200  1
  Si  Si67  1  0.31011600  0.50000000  0.44612200  1
  Si  Si68  1  0.00000000  0.18988400  0.94612200  1
  Si  Si69  1  0.00000000  0.81011600  0.94612200  1
  Si  Si70  1  0.50000000  0.68988400  0.55387800  1
  Si  Si71  1  0.50000000  0.31011600  0.55387800  1
  Si  Si72  1  0.12999900  0.00000000  0.14780600  1
  Si  Si73  1  0.87000100  0.00000000  0.14780600  1
  Si  Si74  1  0.62999900  0.50000000  0.35219400  1
  Si  Si75  1  0.37000100  0.50000000  0.35219400  1
  Si  Si76  1  0.00000000  0.12999900  0.85219400  1
  Si  Si77  1  0.00000000  0.87000100  0.85219400  1
  Si  Si78  1  0.50000000  0.62999900  0.64780600  1
  Si  Si79  1  0.50000000  0.37000100  0.64780600  1
  Si  Si80  1  0.11955000  0.50000000  0.02443200  1
  Si  Si81  1  0.88045000  0.50000000  0.02443200  1
  Si  Si82  1  0.61955000  0.00000000  0.47556800  1
  Si  Si83  1  0.38045000  0.00000000  0.47556800  1
  Si  Si84  1  0.50000000  0.11955000  0.97556800  1
  Si  Si85  1  0.50000000  0.88045000  0.97556800  1
  Si  Si86  1  0.00000000  0.61955000  0.52443200  1
  Si  Si87  1  0.00000000  0.38045000  0.52443200  1
  Si  Si88  1  0.26435900  0.50000000  0.10321100  1
  Si  Si89  1  0.73564100  0.50000000  0.10321100  1
  Si  Si90  1  0.76435900  0.00000000  0.39678900  1
  Si  Si91  1  0.23564100  0.00000000  0.39678900  1
  Si  Si92  1  0.50000000  0.26435900  0.89678900  1
  Si  Si93  1  0.50000000  0.73564100  0.89678900  1
  Si  Si94  1  0.00000000  0.76435900  0.60321100  1
  Si  Si95  1  0.00000000  0.23564100  0.60321100  1
  Si  Si96  1  0.11618200  0.50000000  0.17683600  1
  Si  Si97  1  0.88381800  0.50000000  0.17683600  1
  Si  Si98  1  0.61618200  0.00000000  0.32316400  1
  Si  Si99  1  0.38381800  0.00000000  0.32316400  1
  Si  Si100  1  0.50000000  0.11618200  0.82316400  1
  Si  Si101  1  0.50000000  0.88381800  0.82316400  1
  Si  Si102  1  0.00000000  0.61618200  0.67683600  1
  Si  Si103  1  0.00000000  0.38381800  0.67683600  1
  Si  Si104  1  0.50000000  0.50000000  0.50000000  1
  Si  Si105  1  0.00000000  0.00000000  0.00000000  1
# generated using pymatgen
data_Si
_symmetry_space_group_name_H-M   'P 1'
_cell_length_a   10.17741100
_cell_length_b   10.17741100
_cell_length_c   24.22729500
_cell_angle_alpha   90.00000000
_cell_angle_beta   90.00000000
_cell_angle_gamma   90.00000000
_symmetry_Int_Tables_number   1
_chemical_formula_structural   Si
_chemical_formula_sum   Si106
_cell_volume   2509.45581861
_cell_formula_units_Z   106
loop_
 _symmetry_equiv_pos_site_id
 _symmetry_equiv_pos_as_xyz
  1  'x, y, z'
loop_
 _atom_site_type_symbol
 _atom_site_label
 _atom_site_symmetry_multiplicity
 _atom_site_fract_x
 _atom_site_fract_y
 _atom_site_fract_z
 _atom_site_occupancy
  Si  Si0  1  0.18424500  0.31675300  0.97126400  1
  Si  Si1  1  0.81575500  0.68324700  0.97126400  1
  Si  Si2  1  0.68424500  0.81675300  0.52873600  1
  Si  Si3  1  0.31575500  0.18324700  0.52873600  1
  Si  Si4  1  0.81575500  0.31675300  0.97126400  1
  Si  Si5  1  0.18424500  0.68324700  0.97126400  1
  Si  Si6  1  0.31575500  0.81675300  0.52873600  1
  Si  Si7  1  0.68424500  0.18324700  0.52873600  1
  Si  Si8  1  0.68324700  0.18424500  0.02873600  1
  Si  Si9  1  0.31675300  0.81575500  0.02873600  1
  Si  Si10  1  0.18324700  0.68424500  0.47126400  1
  Si  Si11  1  0.81675300  0.31575500  0.47126400  1
  Si  Si12  1  0.31675300  0.18424500  0.02873600  1
  Si  Si13  1  0.68324700  0.81575500  0.02873600  1
  Si  Si14  1  0.81675300  0.68424500  0.47126400  1
  Si  Si15  1  0.18324700  0.31575500  0.47126400  1
  Si  Si16  1  0.37793300  0.29417800  0.11137900  1
  Si  Si17  1  0.62206700  0.70582200  0.11137900  1
  Si  Si18  1  0.87793300  0.79417800  0.38862100  1
  Si  Si19  1  0.12206700  0.20582200  0.38862100  1
  Si  Si20  1  0.62206700  0.29417800  0.11137900  1
  Si  Si21  1  0.37793300  0.70582200  0.11137900  1
  Si  Si22  1  0.12206700  0.79417800  0.38862100  1
  Si  Si23  1  0.87793300  0.20582200  0.38862100  1
  Si  Si24  1  0.70582200  0.37793300  0.88862100  1
  Si  Si25  1  0.29417800  0.62206700  0.88862100  1
  Si  Si26  1  0.20582200  0.87793300  0.61137900  1
  Si  Si27  1  0.79417800  0.12206700  0.61137900  1
  Si  Si28  1  0.29417800  0.37793300  0.88862100  1
  Si  Si29  1  0.70582200  0.62206700  0.88862100  1
  Si  Si30  1  0.79417800  0.87793300  0.61137900  1
  Si  Si31  1  0.20582200  0.12206700  0.61137900  1
  Si  Si32  1  0.25470600  0.17965600  0.18317300  1
  Si  Si33  1  0.74529400  0.82034400  0.18317300  1
  Si  Si34  1  0.75470600  0.67965600  0.31682700  1
  Si  Si35  1  0.24529400  0.32034400  0.31682700  1
  Si  Si36  1  0.74529400  0.17965600  0.18317300  1
  Si  Si37  1  0.25470600  0.82034400  0.18317300  1
  Si  Si38  1  0.24529400  0.67965600  0.31682700  1
  Si  Si39  1  0.75470600  0.32034400  0.31682700  1
  Si  Si40  1  0.82034400  0.25470600  0.81682700  1
  Si  Si41  1  0.17965600  0.74529400  0.81682700  1
  Si  Si42  1  0.32034400  0.75470600  0.68317300  1
  Si  Si43  1  0.67965600  0.24529400  0.68317300  1
  Si  Si44  1  0.17965600  0.25470600  0.81682700  1
  Si  Si45  1  0.82034400  0.74529400  0.81682700  1
  Si  Si46  1  0.67965600  0.75470600  0.68317300  1
  Si  Si47  1  0.32034400  0.24529400  0.68317300  1
  Si  Si48  1  0.11732200  0.31952900  0.23489700  1
  Si  Si49  1  0.88267800  0.68047100  0.23489700  1
  Si  Si50  1  0.61732200  0.81952900  0.26510300  1
  Si  Si51  1  0.38267800  0.18047100  0.26510300  1
  Si  Si52  1  0.88267800  0.31952900  0.23489700  1
  Si  Si53  1  0.11732200  0.68047100  0.23489700  1
  Si  Si54  1  0.38267800  0.81952900  0.26510300  1
  Si  Si55  1  0.61732200  0.18047100  0.26510300  1
  Si  Si56  1  0.68047100  0.11732200  0.76510300  1
  Si  Si57  1  0.31952900  0.88267800  0.76510300  1
  Si  Si58  1  0.18047100  0.61732200  0.73489700  1
  Si  Si59  1  0.81952900  0.38267800  0.73489700  1
  Si  Si60  1  0.31952900  0.11732200  0.76510300  1
  Si  Si61  1  0.68047100  0.88267800  0.76510300  1
  Si  Si62  1  0.81952900  0.61732200  0.73489700  1
  Si  Si63  1  0.18047100  0.38267800  0.73489700  1
  Si  Si64  1  0.18988400  0.00000000  0.05387800  1
  Si  Si65  1  0.81011600  0.00000000  0.05387800  1
  Si  Si66  1  0.68988400  0.50000000  0.44612200  1
  Si  Si67  1  0.31011600  0.50000000  0.44612200  1
  Si  Si68  1  0.00000000  0.18988400  0.94612200  1
  Si  Si69  1  0.00000000  0.81011600  0.94612200  1
  Si  Si70  1  0.50000000  0.68988400  0.55387800  1
  Si  Si71  1  0.50000000  0.31011600  0.55387800  1
  Si  Si72  1  0.12999900  0.00000000  0.14780600  1
  Si  Si73  1  0.87000100  0.00000000  0.14780600  1
  Si  Si74  1  0.62999900  0.50000000  0.35219400  1
  Si  Si75  1  0.37000100  0.50000000  0.35219400  1
  Si  Si76  1  0.00000000  0.12999900  0.85219400  1
  Si  Si77  1  0.00000000  0.87000100  0.85219400  1
  Si  Si78  1  0.50000000  0.62999900  0.64780600  1
  Si  Si79  1  0.50000000  0.37000100  0.64780600  1
  Si  Si80  1  0.11955000  0.50000000  0.02443200  1
  Si  Si81  1  0.88045000  0.50000000  0.02443200  1
  Si  Si82  1  0.61955000  0.00000000  0.47556800  1
  Si  Si83  1  0.38045000  0.00000000  0.47556800  1
  Si  Si84  1  0.50000000  0.11955000  0.97556800  1
  Si  Si85  1  0.50000000  0.88045000  0.97556800  1
  Si  Si86  1  0.00000000  0.61955000  0.52443200  1
  Si  Si87  1  0.00000000  0.38045000  0.52443200  1
  Si  Si88  1  0.26435900  0.50000000  0.10321100  1
  Si  Si89  1  0.73564100  0.50000000  0.10321100  1
  Si  Si90  1  0.76435900  0.00000000  0.39678900  1
  Si  Si91  1  0.23564100  0.00000000  0.39678900  1
  Si  Si92  1  0.50000000  0.26435900  0.89678900  1
  Si  Si93  1  0.50000000  0.73564100  0.89678900  1
  Si  Si94  1  0.00000000  0.76435900  0.60321100  1
  Si  Si95  1  0.00000000  0.23564100  0.60321100  1
  Si  Si96  1  0.11618200  0.50000000  0.17683600  1
  Si  Si97  1  0.88381800  0.50000000  0.17683600  1
  Si  Si98  1  0.61618200  0.00000000  0.32316400  1
  Si  Si99  1  0.38381800  0.00000000  0.32316400  1
  Si  Si100  1  0.50000000  0.11618200  0.82316400  1
  Si  Si101  1  0.50000000  0.88381800  0.82316400  1
  Si  Si102  1  0.00000000  0.61618200  0.67683600  1
  Si  Si103  1  0.00000000  0.38381800  0.67683600  1
  Si  Si104  1  0.50000000  0.50000000  0.50000000  1
  Si  Si105  1  0.00000000  0.00000000  0.00000000  1
# generated using pymatgen
data_Si
_symmetry_space_group_name_H-M   'P 1'
_cell_length_a   10.17741100
_cell_length_b   10.17741100
_cell_length_c   24.22729500
_cell_angle_alpha   90.00000000
_cell_angle_beta   90.00000000
_cell_angle_gamma   90.00000000
_symmetry_Int_Tables_number   1
_chemical_formula_structural   Si
_chemical_formula_sum   Si106
_cell_volume   2509.45581861
_cell_formula_units_Z   106
loop_
 _symmetry_equiv_pos_site_id
 _symmetry_equiv_pos_as_xyz
  1  'x, y, z'
loop_
 _atom_site_type_symbol
 _atom_site_label
 _atom_site_symmetry_multiplicity
 _atom_site_fract_x
 _atom_site_fract_y
 _atom_site_fract_z
 _atom_site_occupancy
  Si  Si0  1  0.18424500  0.31675300  0.97126400  1
  Si  Si1  1  0.81575500  0.68324700  0.97126400  1
  Si  Si2  1  0.68424500  0.81675300  0.52873600  1
  Si  Si3  1  0.31575500  0.18324700  0.52873600  1
  Si  Si4  1  0.81575500  0.31675300  0.97126400  1
  Si  Si5  1  0.18424500  0.68324700  0.97126400  1
  Si  Si6  1  0.31575500  0.81675300  0.52873600  1
  Si  Si7  1  0.68424500  0.18324700  0.52873600  1
  Si  Si8  1  0.68324700  0.18424500  0.02873600  1
  Si  Si9  1  0.31675300  0.81575500  0.02873600  1
  Si  Si10  1  0.18324700  0.68424500  0.47126400  1
  Si  Si11  1  0.81675300  0.31575500  0.47126400  1
  Si  Si12  1  0.31675300  0.18424500  0.02873600  1
  Si  Si13  1  0.68324700  0.81575500  0.02873600  1
  Si  Si14  1  0.81675300  0.68424500  0.47126400  1
  Si  Si15  1  0.18324700  0.31575500  0.47126400  1
  Si  Si16  1  0.37793300  0.29417800  0.11137900  1
  Si  Si17  1  0.62206700  0.70582200  0.11137900  1
  Si  Si18  1  0.87793300  0.79417800  0.38862100  1
  Si  Si19  1  0.12206700  0.20582200  0.38862100  1
  Si  Si20  1  0.62206700  0.29417800  0.11137900  1
  Si  Si21  1  0.37793300  0.70582200  0.11137900  1
  Si  Si22  1  0.12206700  0.79417800  0.38862100  1
  Si  Si23  1  0.87793300  0.20582200  0.38862100  1
  Si  Si24  1  0.70582200  0.37793300  0.88862100  1
  Si  Si25  1  0.29417800  0.62206700  0.88862100  1
  Si  Si26  1  0.20582200  0.87793300  0.61137900  1
  Si  Si27  1  0.79417800  0.12206700  0.61137900  1
  Si  Si28  1  0.29417800  0.37793300  0.88862100  1
  Si  Si29  1  0.70582200  0.62206700  0.88862100  1
  Si  Si30  1  0.79417800  0.87793300  0.61137900  1
  Si  Si31  1  0.20582200  0.12206700  0.61137900  1
  Si  Si32  1  0.25470600  0.17965600  0.18317300  1
  Si  Si33  1  0.74529400  0.82034400  0.18317300  1
  Si  Si34  1  0.75470600  0.67965600  0.31682700  1
  Si  Si35  1  0.24529400  0.32034400  0.31682700  1
  Si  Si36  1  0.74529400  0.17965600  0.18317300  1
  Si  Si37  1  0.25470600  0.82034400  0.18317300  1
  Si  Si38  1  0.24529400  0.67965600  0.31682700  1
  Si  Si39  1  0.75470600  0.32034400  0.31682700  1
  Si  Si40  1  0.82034400  0.25470600  0.81682700  1
  Si  Si41  1  0.17965600  0.74529400  0.81682700  1
  Si  Si42  1  0.32034400  0.75470600  0.68317300  1
  Si  Si43  1  0.67965600  0.24529400  0.68317300  1
  Si  Si44  1  0.17965600  0.25470600  0.81682700  1
  Si  Si45  1  0.82034400  0.74529400  0.81682700  1
  Si  Si46  1  0.67965600  0.75470600  0.68317300  1
  Si  Si47  1  0.32034400  0.24529400  0.68317300  1
  Si  Si48  1  0.11732200  0.31952900  0.23489700  1
  Si  Si49  1  0.88267800  0.68047100  0.23489700  1
  Si  Si50  1  0.61732200  0.81952900  0.26510300  1
  Si  Si51  1  0.38267800  0.18047100  0.26510300  1
  Si  Si52  1  0.88267800  0.31952900  0.23489700  1
  Si  Si53  1  0.11732200  0.68047100  0.23489700  1
  Si  Si54  1  0.38267800  0.81952900  0.26510300  1
  Si  Si55  1  0.61732200  0.18047100  0.26510300  1
  Si  Si56  1  0.68047100  0.11732200  0.76510300  1
  Si  Si57  1  0.31952900  0.88267800  0.76510300  1
  Si  Si58  1  0.18047100  0.61732200  0.73489700  1
  Si  Si59  1  0.81952900  0.38267800  0.73489700  1
  Si  Si60  1  0.31952900  0.11732200  0.76510300  1
  Si  Si61  1  0.68047100  0.88267800  0.76510300  1
  Si  Si62  1  0.81952900  0.61732200  0.73489700  1
  Si  Si63  1  0.18047100  0.38267800  0.73489700  1
  Si  Si64  1  0.18988400  0.00000000  0.05387800  1
  Si  Si65  1  0.81011600  0.00000000  0.05387800  1
  Si  Si66  1  0.68988400  0.50000000  0.44612200  1
  Si  Si67  1  0.31011600  0.50000000  0.44612200  1
  Si  Si68  1  0.00000000  0.18988400  0.94612200  1
  Si  Si69  1  0.00000000  0.81011600  0.94612200  1
  Si  Si70  1  0.50000000  0.68988400  0.55387800  1
  Si  Si71  1  0.50000000  0.31011600  0.55387800  1
  Si  Si72  1  0.12999900  0.00000000  0.14780600  1
  Si  Si73  1  0.87000100  0.00000000  0.14780600  1
  Si  Si74  1  0.62999900  0.50000000  0.35219400  1
  Si  Si75  1  0.37000100  0.50000000  0.35219400  1
  Si  Si76  1  0.00000000  0.12999900  0.85219400  1
  Si  Si77  1  0.00000000  0.87000100  0.85219400  1
  Si  Si78  1  0.50000000  0.62999900  0.64780600  1
  Si  Si79  1  0.50000000  0.37000100  0.64780600  1
  Si  Si80  1  0.11955000  0.50000000  0.02443200  1
  Si  Si81  1  0.88045000  0.50000000  0.02443200  1
  Si  Si82  1  0.61955000  0.00000000  0.47556800  1
  Si  Si83  1  0.38045000  0.00000000  0.47556800  1
  Si  Si84  1  0.50000000  0.11955000  0.97556800  1
  Si  Si85  1  0.50000000  0.88045000  0.97556800  1
  Si  Si86  1  0.00000000  0.61955000  0.52443200  1
  Si  Si87  1  0.00000000  0.38045000  0.52443200  1
  Si  Si88  1  0.26435900  0.50000000  0.10321100  1
  Si  Si89  1  0.73564100  0.50000000  0.10321100  1
  Si  Si90  1  0.76435900  0.00000000  0.39678900  1
  Si  Si91  1  0.23564100  0.00000000  0.39678900  1
  Si  Si92  1  0.50000000  0.26435900  0.89678900  1
  Si  Si93  1  0.50000000  0.73564100  0.89678900  1
  Si  Si94  1  0.00000000  0.76435900  0.60321100  1
  Si  Si95  1  0.00000000  0.23564100  0.60321100  1
  Si  Si96  1  0.11618200  0.50000000  0.17683600  1
  Si  Si97  1  0.88381800  0.50000000  0.17683600  1
  Si  Si98  1  0.61618200  0.00000000  0.32316400  1
  Si  Si99  1  0.38381800  0.00000000  0.32316400  1
  Si  Si100  1  0.50000000  0.11618200  0.82316400  1
  Si  Si101  1  0.50000000  0.88381800  0.82316400  1
  Si  Si102  1  0.00000000  0.61618200  0.67683600  1
  Si  Si103  1  0.00000000  0.38381800  0.67683600  1
  Si  Si104  1  0.50000000  0.50000000  0.50000000  1
  Si  Si105  1  0.00000000  0.00000000  0.00000000  1
# generated using pymatgen
data_Si
_symmetry_space_group_name_H-M   'P 1'
_cell_length_a   10.17741100
_cell_length_b   10.17741100
_cell_length_c   24.22729500
_cell_angle_alpha   90.00000000
_cell_angle_beta   90.00000000
_cell_angle_gamma   90.00000000
_symmetry_Int_Tables_number   1
_chemical_formula_structural   Si
_chemical_formula_sum   Si106
_cell_volume   2509.45581861
_cell_formula_units_Z   106
loop_
 _symmetry_equiv_pos_site_id
 _symmetry_equiv_pos_as_xyz
  1  'x, y, z'
loop_
 _atom_site_type_symbol
 _atom_site_label
 _atom_site_symmetry_multiplicity
 _atom_site_fract_x
 _atom_site_fract_y
 _atom_site_fract_z
 _atom_site_occupancy
  Si  Si0  1  0.18424500  0.31675300  0.97126400  1
  Si  Si1  1  0.81575500  0.68324700  0.97126400  1
  Si  Si2  1  0.68424500  0.81675300  0.52873600  1
  Si  Si3  1  0.31575500  0.18324700  0.52873600  1
  Si  Si4  1  0.81575500  0.31675300  0.97126400  1
  Si  Si5  1  0.18424500  0.68324700  0.97126400  1
  Si  Si6  1  0.31575500  0.81675300  0.52873600  1
  Si  Si7  1  0.68424500  0.18324700  0.52873600  1
  Si  Si8  1  0.68324700  0.18424500  0.02873600  1
  Si  Si9  1  0.31675300  0.81575500  0.02873600  1
  Si  Si10  1  0.18324700  0.68424500  0.47126400  1
  Si  Si11  1  0.81675300  0.31575500  0.47126400  1
  Si  Si12  1  0.31675300  0.18424500  0.02873600  1
  Si  Si13  1  0.68324700  0.81575500  0.02873600  1
  Si  Si14  1  0.81675300  0.68424500  0.47126400  1
  Si  Si15  1  0.18324700  0.31575500  0.47126400  1
  Si  Si16  1  0.37793300  0.29417800  0.11137900  1
  Si  Si17  1  0.62206700  0.70582200  0.11137900  1
  Si  Si18  1  0.87793300  0.79417800  0.38862100  1
  Si  Si19  1  0.12206700  0.20582200  0.38862100  1
  Si  Si20  1  0.62206700  0.29417800  0.11137900  1
  Si  Si21  1  0.37793300  0.70582200  0.11137900  1
  Si  Si22  1  0.12206700  0.79417800  0.38862100  1
  Si  Si23  1  0.87793300  0.20582200  0.38862100  1
  Si  Si24  1  0.70582200  0.37793300  0.88862100  1
  Si  Si25  1  0.29417800  0.62206700  0.88862100  1
  Si  Si26  1  0.20582200  0.87793300  0.61137900  1
  Si  Si27  1  0.79417800  0.12206700  0.61137900  1
  Si  Si28  1  0.29417800  0.37793300  0.88862100  1
  Si  Si29  1  0.70582200  0.62206700  0.88862100  1
  Si  Si30  1  0.79417800  0.87793300  0.61137900  1
  Si  Si31  1  0.20582200  0.12206700  0.61137900  1
  Si  Si32  1  0.25470600  0.17965600  0.18317300  1
  Si  Si33  1  0.74529400  0.82034400  0.18317300  1
  Si  Si34  1  0.75470600  0.67965600  0.31682700  1
  Si  Si35  1  0.24529400  0.32034400  0.31682700  1
  Si  Si36  1  0.74529400  0.17965600  0.18317300  1
  Si  Si37  1  0.25470600  0.82034400  0.18317300  1
  Si  Si38  1  0.24529400  0.67965600  0.31682700  1
  Si  Si39  1  0.75470600  0.32034400  0.31682700  1
  Si  Si40  1  0.82034400  0.25470600  0.81682700  1
  Si  Si41  1  0.17965600  0.74529400  0.81682700  1
  Si  Si42  1  0.32034400  0.75470600  0.68317300  1
  Si  Si43  1  0.67965600  0.24529400  0.68317300  1
  Si  Si44  1  0.17965600  0.25470600  0.81682700  1
  Si  Si45  1  0.82034400  0.74529400  0.81682700  1
  Si  Si46  1  0.67965600  0.75470600  0.68317300  1
  Si  Si47  1  0.32034400  0.24529400  0.68317300  1
  Si  Si48  1  0.11732200  0.31952900  0.23489700  1
  Si  Si49  1  0.88267800  0.68047100  0.23489700  1
  Si  Si50  1  0.61732200  0.81952900  0.26510300  1
  Si  Si51  1  0.38267800  0.18047100  0.26510300  1
  Si  Si52  1  0.88267800  0.31952900  0.23489700  1
  Si  Si53  1  0.11732200  0.68047100  0.23489700  1
  Si  Si54  1  0.38267800  0.81952900  0.26510300  1
  Si  Si55  1  0.61732200  0.18047100  0.26510300  1
  Si  Si56  1  0.68047100  0.11732200  0.76510300  1
  Si  Si57  1  0.31952900  0.88267800  0.76510300  1
  Si  Si58  1  0.18047100  0.61732200  0.73489700  1
  Si  Si59  1  0.81952900  0.38267800  0.73489700  1
  Si  Si60  1  0.31952900  0.11732200  0.76510300  1
  Si  Si61  1  0.68047100  0.88267800  0.76510300  1
  Si  Si62  1  0.81952900  0.61732200  0.73489700  1
  Si  Si63  1  0.18047100  0.38267800  0.73489700  1
  Si  Si64  1  0.18988400  0.00000000  0.05387800  1
  Si  Si65  1  0.81011600  0.00000000  0.05387800  1
  Si  Si66  1  0.68988400  0.50000000  0.44612200  1
  Si  Si67  1  0.31011600  0.50000000  0.44612200  1
  Si  Si68  1  0.00000000  0.18988400  0.94612200  1
  Si  Si69  1  0.00000000  0.81011600  0.94612200  1
  Si  Si70  1  0.50000000  0.68988400  0.55387800  1
  Si  Si71  1  0.50000000  0.31011600  0.55387800  1
  Si  Si72  1  0.12999900  0.00000000  0.14780600  1
  Si  Si73  1  0.87000100  0.00000000  0.14780600  1
  Si  Si74  1  0.62999900  0.50000000  0.35219400  1
  Si  Si75  1  0.37000100  0.50000000  0.35219400  1
  Si  Si76  1  0.00000000  0.12999900  0.85219400  1
  Si  Si77  1  0.00000000  0.87000100  0.85219400  1
  Si  Si78  1  0.50000000  0.62999900  0.64780600  1
  Si  Si79  1  0.50000000  0.37000100  0.64780600  1
  Si  Si80  1  0.11955000  0.50000000  0.02443200  1
  Si  Si81  1  0.88045000  0.50000000  0.02443200  1
  Si  Si82  1  0.61955000  0.00000000  0.47556800  1
  Si  Si83  1  0.38045000  0.00000000  0.47556800  1
  Si  Si84  1  0.50000000  0.11955000  0.97556800  1
  Si  Si85  1  0.50000000  0.88045000  0.97556800  1
  Si  Si86  1  0.00000000  0.61955000  0.52443200  1
  Si  Si87  1  0.00000000  0.38045000  0.52443200  1
  Si  Si88  1  0.26435900  0.50000000  0.10321100  1
  Si  Si89  1  0.73564100  0.50000000  0.10321100  1
  Si  Si90  1  0.76435900  0.00000000  0.39678900  1
  Si  Si91  1  0.23564100  0.00000000  0.39678900  1
  Si  Si92  1  0.50000000  0.26435900  0.89678900  1
  Si  Si93  1  0.50000000  0.73564100  0.89678900  1
  Si  Si94  1  0.00000000  0.76435900  0.60321100  1
  Si  Si95  1  0.00000000  0.23564100  0.60321100  1
  Si  Si96  1  0.11618200  0.50000000  0.17683600  1
  Si  Si97  1  0.88381800  0.50000000  0.17683600  1
  Si  Si98  1  0.61618200  0.00000000  0.32316400  1
  Si  Si99  1  0.38381800  0.00000000  0.32316400  1
  Si  Si100  1  0.50000000  0.11618200  0.82316400  1
  Si  Si101  1  0.50000000  0.88381800  0.82316400  1
  Si  Si102  1  0.00000000  0.61618200  0.67683600  1
  Si  Si103  1  0.00000000  0.38381800  0.67683600  1
  Si  Si104  1  0.50000000  0.50000000  0.50000000  1
  Si  Si105  1  0.00000000  0.00000000  0.00000000  1
