# generated using pymatgen
data_Si
_symmetry_space_group_name_H-M   'P 1'
_cell_length_a   11.69287432
_cell_length_b   13.41867354
_cell_length_c   12.67417055
_cell_angle_alpha   97.64455553
_cell_angle_beta   80.60118483
_cell_angle_gamma   82.55712765
_symmetry_Int_Tables_number   1
_chemical_formula_structural   Si
_chemical_formula_sum   Si100
_cell_volume   1921.07377325
_cell_formula_units_Z   100
loop_
 _symmetry_equiv_pos_site_id
 _symmetry_equiv_pos_as_xyz
  1  'x, y, z'
loop_
 _atom_site_type_symbol
 _atom_site_label
 _atom_site_symmetry_multiplicity
 _atom_site_fract_x
 _atom_site_fract_y
 _atom_site_fract_z
 _atom_site_occupancy
  Si  Si0  1  0.89617373  0.56727924  0.24038935  1
  Si  Si1  1  0.04272748  0.51778955  0.59892362  1
  Si  Si2  1  0.37047316  0.87516718  0.56377512  1
  Si  Si3  1  0.62212624  0.45266546  0.21570281  1
  Si  Si4  1  0.41547191  0.84404743  0.12301209  1
  Si  Si5  1  0.39135441  0.18655944  0.72942823  1
  Si  Si6  1  0.86109830  0.65875793  0.85917050  1
  Si  Si7  1  0.61816076  0.01615978  0.24552570  1
  Si  Si8  1  0.63337820  0.92457125  0.38579889  1
  Si  Si9  1  0.49063368  0.56476233  0.96998461  1
  Si  Si10  1  0.71391084  0.35344756  0.89189758  1
  Si  Si11  1  0.36667930  0.40294565  0.46208878  1
  Si  Si12  1  0.83329009  0.91027198  0.39114947  1
  Si  Si13  1  0.64316371  0.74405792  0.67599543  1
  Si  Si14  1  0.63682608  0.18864318  0.31092031  1
  Si  Si15  1  0.38394854  0.13105560  0.51153060  1
  Si  Si16  1  0.17818853  0.57956208  0.39423175  1
  Si  Si17  1  0.42764939  0.35792305  0.77247262  1
  Si  Si18  1  0.49768476  0.26156291  0.47534570  1
  Si  Si19  1  0.41511200  0.76608344  0.28005968  1
  Si  Si20  1  0.96504572  0.04389800  0.37287571  1
  Si  Si21  1  0.89230579  0.12059375  0.94471692  1
  Si  Si22  1  0.92499963  0.37272683  0.64929697  1
  Si  Si23  1  0.04301085  0.89369151  0.57274518  1
  Si  Si24  1  0.31276844  0.06772340  0.34989933  1
  Si  Si25  1  0.05492310  0.71154665  0.84896614  1
  Si  Si26  1  0.89680671  0.24263896  0.82793210  1
  Si  Si27  1  0.32922968  0.11650333  0.88756353  1
  Si  Si28  1  0.50703720  0.99170655  0.55168051  1
  Si  Si29  1  0.73072878  0.65019508  0.02064014  1
  Si  Si30  1  0.84889029  0.78892494  0.65592143  1
  Si  Si31  1  0.85853731  0.50710591  0.54176602  1
  Si  Si32  1  0.76313439  0.84265790  0.89622995  1
  Si  Si33  1  0.40200970  0.54284275  0.80824584  1
  Si  Si34  1  0.08353703  0.74954315  0.23625262  1
  Si  Si35  1  0.60721726  0.75771394  0.32709436  1
  Si  Si36  1  0.71836057  0.42113364  0.72439536  1
  Si  Si37  1  0.44576286  0.01514756  0.17554070  1
  Si  Si38  1  0.27614622  0.84551464  0.74017349  1
  Si  Si39  1  0.77813077  0.70184664  0.19015701  1
  Si  Si40  1  0.41382903  0.33213413  0.08871211  1
  Si  Si41  1  0.17793281  0.98702969  0.65350601  1
  Si  Si42  1  0.63110884  0.05392720  0.66829354  1
  Si  Si43  1  0.26281095  0.90413303  0.03032343  1
  Si  Si44  1  0.07170619  0.31364108  0.33129400  1
  Si  Si45  1  0.17346707  0.07668086  0.09675378  1
  Si  Si46  1  0.20962695  0.16104743  0.65518982  1
  Si  Si47  1  0.05110789  0.49653484  0.10088063  1
  Si  Si48  1  0.17883940  0.42653679  0.79127203  1
  Si  Si49  1  0.97439749  0.48254593  0.79499795  1
  Si  Si50  1  0.19949948  0.58870417  0.89019910  1
  Si  Si51  1  0.05000284  0.21413181  0.56949609  1
  Si  Si52  1  0.54212595  0.11793473  0.85352673  1
  Si  Si53  1  0.86552572  0.35493398  0.40825926  1
  Si  Si54  1  0.29704202  0.90257875  0.40054220  1
  Si  Si55  1  0.96514835  0.41082153  0.96496570  1
  Si  Si56  1  0.52870959  0.29602350  0.90673386  1
  Si  Si57  1  0.50438346  0.61952656  0.67088756  1
  Si  Si58  1  0.09509458  0.85548223  0.95750641  1
  Si  Si59  1  0.11246167  0.12203448  0.93405684  1
  Si  Si60  1  0.66130038  0.49327825  0.03185580  1
  Si  Si61  1  0.83821204  0.17142116  0.13986717  1
  Si  Si62  1  0.74652290  0.59450074  0.71862314  1
  Si  Si63  1  0.88726426  0.15123642  0.65743154  1
  Si  Si64  1  0.87518851  0.96812580  0.83290803  1
  Si  Si65  1  0.68693881  0.18352234  0.03047068  1
  Si  Si66  1  0.57454655  0.04910540  0.01413442  1
  Si  Si67  1  0.98782368  0.06662320  0.19293133  1
  Si  Si68  1  0.47803451  0.52017797  0.37995662  1
  Si  Si69  1  0.90062177  0.82530025  0.21059493  1
  Si  Si70  1  0.10331583  0.88643386  0.38039918  1
  Si  Si71  1  0.05474951  0.74584522  0.66927530  1
  Si  Si72  1  0.35659312  0.51868024  0.10783069  1
  Si  Si73  1  0.21970780  0.63906137  0.56583439  1
  Si  Si74  1  0.27242754  0.21931242  0.06555181  1
  Si  Si75  1  0.84410911  0.97789684  0.65593037  1
  Si  Si76  1  0.80341663  0.42875504  0.26600684  1
  Si  Si77  1  0.57132611  0.83783779  0.85097867  1
  Si  Si78  1  0.41288890  0.68790325  0.53775175  1
  Si  Si79  1  0.85207221  0.75899331  0.46970326  1
  Si  Si80  1  0.61822673  0.51887669  0.50719522  1
  Si  Si81  1  0.54726174  0.73027132  0.98602395  1
  Si  Si82  1  0.93073774  0.93492908  0.08573907  1
  Si  Si83  1  0.09703502  0.33233845  0.14496094  1
  Si  Si84  1  0.09518744  0.27254329  0.84371846  1
  Si  Si85  1  0.29009984  0.49298965  0.64117821  1
  Si  Si86  1  0.73307242  0.94860121  0.06997265  1
  Si  Si87  1  0.37730541  0.93377995  0.86698224  1
  Si  Si88  1  0.70787324  0.19217928  0.59845101  1
  Si  Si89  1  0.11391731  0.15330757  0.38239896  1
  Si  Si90  1  0.67137007  0.68772066  0.47719201  1
  Si  Si91  1  0.79820657  0.18904791  0.41598726  1
  Si  Si92  1  0.18073456  0.61265034  0.08360540  1
  Si  Si93  1  0.57278898  0.29129047  0.18201330  1
  Si  Si94  1  0.35039885  0.60548916  0.28292226  1
  Si  Si95  1  0.90702527  0.32115602  0.11000593  1
  Si  Si96  1  0.17056329  0.41671142  0.43830740  1
  Si  Si97  1  0.58300159  0.34676086  0.62129775  1
  Si  Si98  1  0.00238840  0.64795352  0.35581991  1
  Si  Si99  1  0.08334169  0.96794150  0.83021497  1
# generated using pymatgen
data_Si
_symmetry_space_group_name_H-M   'P 1'
_cell_length_a   11.69287432
_cell_length_b   13.41867354
_cell_length_c   12.67417055
_cell_angle_alpha   97.64455553
_cell_angle_beta   80.60118483
_cell_angle_gamma   82.55712765
_symmetry_Int_Tables_number   1
_chemical_formula_structural   Si
_chemical_formula_sum   Si100
_cell_volume   1921.07377325
_cell_formula_units_Z   100
loop_
 _symmetry_equiv_pos_site_id
 _symmetry_equiv_pos_as_xyz
  1  'x, y, z'
loop_
 _atom_site_type_symbol
 _atom_site_label
 _atom_site_symmetry_multiplicity
 _atom_site_fract_x
 _atom_site_fract_y
 _atom_site_fract_z
 _atom_site_occupancy
  Si  Si0  1  0.89617373  0.56727924  0.24038935  1
  Si  Si1  1  0.04272748  0.51778955  0.59892362  1
  Si  Si2  1  0.37047316  0.87516718  0.56377512  1
  Si  Si3  1  0.62212624  0.45266546  0.21570281  1
  Si  Si4  1  0.41547191  0.84404743  0.12301209  1
  Si  Si5  1  0.39135441  0.18655944  0.72942823  1
  Si  Si6  1  0.86109830  0.65875793  0.85917050  1
  Si  Si7  1  0.61816076  0.01615978  0.24552570  1
  Si  Si8  1  0.63337820  0.92457125  0.38579889  1
  Si  Si9  1  0.49063368  0.56476233  0.96998461  1
  Si  Si10  1  0.71391084  0.35344756  0.89189758  1
  Si  Si11  1  0.36667930  0.40294565  0.46208878  1
  Si  Si12  1  0.83329009  0.91027198  0.39114947  1
  Si  Si13  1  0.64316371  0.74405792  0.67599543  1
  Si  Si14  1  0.63682608  0.18864318  0.31092031  1
  Si  Si15  1  0.38394854  0.13105560  0.51153060  1
  Si  Si16  1  0.17818853  0.57956208  0.39423175  1
  Si  Si17  1  0.42764939  0.35792305  0.77247262  1
  Si  Si18  1  0.49768476  0.26156291  0.47534570  1
  Si  Si19  1  0.41511200  0.76608344  0.28005968  1
  Si  Si20  1  0.96504572  0.04389800  0.37287571  1
  Si  Si21  1  0.89230579  0.12059375  0.94471692  1
  Si  Si22  1  0.92499963  0.37272683  0.64929697  1
  Si  Si23  1  0.04301085  0.89369151  0.57274518  1
  Si  Si24  1  0.31276844  0.06772340  0.34989933  1
  Si  Si25  1  0.05492310  0.71154665  0.84896614  1
  Si  Si26  1  0.89680671  0.24263896  0.82793210  1
  Si  Si27  1  0.32922968  0.11650333  0.88756353  1
  Si  Si28  1  0.50703720  0.99170655  0.55168051  1
  Si  Si29  1  0.73072878  0.65019508  0.02064014  1
  Si  Si30  1  0.84889029  0.78892494  0.65592143  1
  Si  Si31  1  0.85853731  0.50710591  0.54176602  1
  Si  Si32  1  0.76313439  0.84265790  0.89622995  1
  Si  Si33  1  0.40200970  0.54284275  0.80824584  1
  Si  Si34  1  0.08353703  0.74954315  0.23625262  1
  Si  Si35  1  0.60721726  0.75771394  0.32709436  1
  Si  Si36  1  0.71836057  0.42113364  0.72439536  1
  Si  Si37  1  0.44576286  0.01514756  0.17554070  1
  Si  Si38  1  0.27614622  0.84551464  0.74017349  1
  Si  Si39  1  0.77813077  0.70184664  0.19015701  1
  Si  Si40  1  0.41382903  0.33213413  0.08871211  1
  Si  Si41  1  0.17793281  0.98702969  0.65350601  1
  Si  Si42  1  0.63110884  0.05392720  0.66829354  1
  Si  Si43  1  0.26281095  0.90413303  0.03032343  1
  Si  Si44  1  0.07170619  0.31364108  0.33129400  1
  Si  Si45  1  0.17346707  0.07668086  0.09675378  1
  Si  Si46  1  0.20962695  0.16104743  0.65518982  1
  Si  Si47  1  0.05110789  0.49653484  0.10088063  1
  Si  Si48  1  0.17883940  0.42653679  0.79127203  1
  Si  Si49  1  0.97439749  0.48254593  0.79499795  1
  Si  Si50  1  0.19949948  0.58870417  0.89019910  1
  Si  Si51  1  0.05000284  0.21413181  0.56949609  1
  Si  Si52  1  0.54212595  0.11793473  0.85352673  1
  Si  Si53  1  0.86552572  0.35493398  0.40825926  1
  Si  Si54  1  0.29704202  0.90257875  0.40054220  1
  Si  Si55  1  0.96514835  0.41082153  0.96496570  1
  Si  Si56  1  0.52870959  0.29602350  0.90673386  1
  Si  Si57  1  0.50438346  0.61952656  0.67088756  1
  Si  Si58  1  0.09509458  0.85548223  0.95750641  1
  Si  Si59  1  0.11246167  0.12203448  0.93405684  1
  Si  Si60  1  0.66130038  0.49327825  0.03185580  1
  Si  Si61  1  0.83821204  0.17142116  0.13986717  1
  Si  Si62  1  0.74652290  0.59450074  0.71862314  1
  Si  Si63  1  0.88726426  0.15123642  0.65743154  1
  Si  Si64  1  0.87518851  0.96812580  0.83290803  1
  Si  Si65  1  0.68693881  0.18352234  0.03047068  1
  Si  Si66  1  0.57454655  0.04910540  0.01413442  1
  Si  Si67  1  0.98782368  0.06662320  0.19293133  1
  Si  Si68  1  0.47803451  0.52017797  0.37995662  1
  Si  Si69  1  0.90062177  0.82530025  0.21059493  1
  Si  Si70  1  0.10331583  0.88643386  0.38039918  1
  Si  Si71  1  0.05474951  0.74584522  0.66927530  1
  Si  Si72  1  0.35659312  0.51868024  0.10783069  1
  Si  Si73  1  0.21970780  0.63906137  0.56583439  1
  Si  Si74  1  0.27242754  0.21931242  0.06555181  1
  Si  Si75  1  0.84410911  0.97789684  0.65593037  1
  Si  Si76  1  0.80341663  0.42875504  0.26600684  1
  Si  Si77  1  0.57132611  0.83783779  0.85097867  1
  Si  Si78  1  0.41288890  0.68790325  0.53775175  1
  Si  Si79  1  0.85207221  0.75899331  0.46970326  1
  Si  Si80  1  0.61822673  0.51887669  0.50719522  1
  Si  Si81  1  0.54726174  0.73027132  0.98602395  1
  Si  Si82  1  0.93073774  0.93492908  0.08573907  1
  Si  Si83  1  0.09703502  0.33233845  0.14496094  1
  Si  Si84  1  0.09518744  0.27254329  0.84371846  1
  Si  Si85  1  0.29009984  0.49298965  0.64117821  1
  Si  Si86  1  0.73307242  0.94860121  0.06997265  1
  Si  Si87  1  0.37730541  0.93377995  0.86698224  1
  Si  Si88  1  0.70787324  0.19217928  0.59845101  1
  Si  Si89  1  0.11391731  0.15330757  0.38239896  1
  Si  Si90  1  0.67137007  0.68772066  0.47719201  1
  Si  Si91  1  0.79820657  0.18904791  0.41598726  1
  Si  Si92  1  0.18073456  0.61265034  0.08360540  1
  Si  Si93  1  0.57278898  0.29129047  0.18201330  1
  Si  Si94  1  0.35039885  0.60548916  0.28292226  1
  Si  Si95  1  0.90702527  0.32115602  0.11000593  1
  Si  Si96  1  0.17056329  0.41671142  0.43830740  1
  Si  Si97  1  0.58300159  0.34676086  0.62129775  1
  Si  Si98  1  0.00238840  0.64795352  0.35581991  1
  Si  Si99  1  0.08334169  0.96794150  0.83021497  1
# generated using pymatgen
data_Si
_symmetry_space_group_name_H-M   'P 1'
_cell_length_a   11.69287432
_cell_length_b   13.41867354
_cell_length_c   12.67417055
_cell_angle_alpha   97.64455553
_cell_angle_beta   80.60118483
_cell_angle_gamma   82.55712765
_symmetry_Int_Tables_number   1
_chemical_formula_structural   Si
_chemical_formula_sum   Si100
_cell_volume   1921.07377325
_cell_formula_units_Z   100
loop_
 _symmetry_equiv_pos_site_id
 _symmetry_equiv_pos_as_xyz
  1  'x, y, z'
loop_
 _atom_site_type_symbol
 _atom_site_label
 _atom_site_symmetry_multiplicity
 _atom_site_fract_x
 _atom_site_fract_y
 _atom_site_fract_z
 _atom_site_occupancy
  Si  Si0  1  0.89617373  0.56727924  0.24038935  1
  Si  Si1  1  0.04272748  0.51778955  0.59892362  1
  Si  Si2  1  0.37047316  0.87516718  0.56377512  1
  Si  Si3  1  0.62212624  0.45266546  0.21570281  1
  Si  Si4  1  0.41547191  0.84404743  0.12301209  1
  Si  Si5  1  0.39135441  0.18655944  0.72942823  1
  Si  Si6  1  0.86109830  0.65875793  0.85917050  1
  Si  Si7  1  0.61816076  0.01615978  0.24552570  1
  Si  Si8  1  0.63337820  0.92457125  0.38579889  1
  Si  Si9  1  0.49063368  0.56476233  0.96998461  1
  Si  Si10  1  0.71391084  0.35344756  0.89189758  1
  Si  Si11  1  0.36667930  0.40294565  0.46208878  1
  Si  Si12  1  0.83329009  0.91027198  0.39114947  1
  Si  Si13  1  0.64316371  0.74405792  0.67599543  1
  Si  Si14  1  0.63682608  0.18864318  0.31092031  1
  Si  Si15  1  0.38394854  0.13105560  0.51153060  1
  Si  Si16  1  0.17818853  0.57956208  0.39423175  1
  Si  Si17  1  0.42764939  0.35792305  0.77247262  1
  Si  Si18  1  0.49768476  0.26156291  0.47534570  1
  Si  Si19  1  0.41511200  0.76608344  0.28005968  1
  Si  Si20  1  0.96504572  0.04389800  0.37287571  1
  Si  Si21  1  0.89230579  0.12059375  0.94471692  1
  Si  Si22  1  0.92499963  0.37272683  0.64929697  1
  Si  Si23  1  0.04301085  0.89369151  0.57274518  1
  Si  Si24  1  0.31276844  0.06772340  0.34989933  1
  Si  Si25  1  0.05492310  0.71154665  0.84896614  1
  Si  Si26  1  0.89680671  0.24263896  0.82793210  1
  Si  Si27  1  0.32922968  0.11650333  0.88756353  1
  Si  Si28  1  0.50703720  0.99170655  0.55168051  1
  Si  Si29  1  0.73072878  0.65019508  0.02064014  1
  Si  Si30  1  0.84889029  0.78892494  0.65592143  1
  Si  Si31  1  0.85853731  0.50710591  0.54176602  1
  Si  Si32  1  0.76313439  0.84265790  0.89622995  1
  Si  Si33  1  0.40200970  0.54284275  0.80824584  1
  Si  Si34  1  0.08353703  0.74954315  0.23625262  1
  Si  Si35  1  0.60721726  0.75771394  0.32709436  1
  Si  Si36  1  0.71836057  0.42113364  0.72439536  1
  Si  Si37  1  0.44576286  0.01514756  0.17554070  1
  Si  Si38  1  0.27614622  0.84551464  0.74017349  1
  Si  Si39  1  0.77813077  0.70184664  0.19015701  1
  Si  Si40  1  0.41382903  0.33213413  0.08871211  1
  Si  Si41  1  0.17793281  0.98702969  0.65350601  1
  Si  Si42  1  0.63110884  0.05392720  0.66829354  1
  Si  Si43  1  0.26281095  0.90413303  0.03032343  1
  Si  Si44  1  0.07170619  0.31364108  0.33129400  1
  Si  Si45  1  0.17346707  0.07668086  0.09675378  1
  Si  Si46  1  0.20962695  0.16104743  0.65518982  1
  Si  Si47  1  0.05110789  0.49653484  0.10088063  1
  Si  Si48  1  0.17883940  0.42653679  0.79127203  1
  Si  Si49  1  0.97439749  0.48254593  0.79499795  1
  Si  Si50  1  0.19949948  0.58870417  0.89019910  1
  Si  Si51  1  0.05000284  0.21413181  0.56949609  1
  Si  Si52  1  0.54212595  0.11793473  0.85352673  1
  Si  Si53  1  0.86552572  0.35493398  0.40825926  1
  Si  Si54  1  0.29704202  0.90257875  0.40054220  1
  Si  Si55  1  0.96514835  0.41082153  0.96496570  1
  Si  Si56  1  0.52870959  0.29602350  0.90673386  1
  Si  Si57  1  0.50438346  0.61952656  0.67088756  1
  Si  Si58  1  0.09509458  0.85548223  0.95750641  1
  Si  Si59  1  0.11246167  0.12203448  0.93405684  1
  Si  Si60  1  0.66130038  0.49327825  0.03185580  1
  Si  Si61  1  0.83821204  0.17142116  0.13986717  1
  Si  Si62  1  0.74652290  0.59450074  0.71862314  1
  Si  Si63  1  0.88726426  0.15123642  0.65743154  1
  Si  Si64  1  0.87518851  0.96812580  0.83290803  1
  Si  Si65  1  0.68693881  0.18352234  0.03047068  1
  Si  Si66  1  0.57454655  0.04910540  0.01413442  1
  Si  Si67  1  0.98782368  0.06662320  0.19293133  1
  Si  Si68  1  0.47803451  0.52017797  0.37995662  1
  Si  Si69  1  0.90062177  0.82530025  0.21059493  1
  Si  Si70  1  0.10331583  0.88643386  0.38039918  1
  Si  Si71  1  0.05474951  0.74584522  0.66927530  1
  Si  Si72  1  0.35659312  0.51868024  0.10783069  1
  Si  Si73  1  0.21970780  0.63906137  0.56583439  1
  Si  Si74  1  0.27242754  0.21931242  0.06555181  1
  Si  Si75  1  0.84410911  0.97789684  0.65593037  1
  Si  Si76  1  0.80341663  0.42875504  0.26600684  1
  Si  Si77  1  0.57132611  0.83783779  0.85097867  1
  Si  Si78  1  0.41288890  0.68790325  0.53775175  1
  Si  Si79  1  0.85207221  0.75899331  0.46970326  1
  Si  Si80  1  0.61822673  0.51887669  0.50719522  1
  Si  Si81  1  0.54726174  0.73027132  0.98602395  1
  Si  Si82  1  0.93073774  0.93492908  0.08573907  1
  Si  Si83  1  0.09703502  0.33233845  0.14496094  1
  Si  Si84  1  0.09518744  0.27254329  0.84371846  1
  Si  Si85  1  0.29009984  0.49298965  0.64117821  1
  Si  Si86  1  0.73307242  0.94860121  0.06997265  1
  Si  Si87  1  0.37730541  0.93377995  0.86698224  1
  Si  Si88  1  0.70787324  0.19217928  0.59845101  1
  Si  Si89  1  0.11391731  0.15330757  0.38239896  1
  Si  Si90  1  0.67137007  0.68772066  0.47719201  1
  Si  Si91  1  0.79820657  0.18904791  0.41598726  1
  Si  Si92  1  0.18073456  0.61265034  0.08360540  1
  Si  Si93  1  0.57278898  0.29129047  0.18201330  1
  Si  Si94  1  0.35039885  0.60548916  0.28292226  1
  Si  Si95  1  0.90702527  0.32115602  0.11000593  1
  Si  Si96  1  0.17056329  0.41671142  0.43830740  1
  Si  Si97  1  0.58300159  0.34676086  0.62129775  1
  Si  Si98  1  0.00238840  0.64795352  0.35581991  1
  Si  Si99  1  0.08334169  0.96794150  0.83021497  1
# generated using pymatgen
data_Si
_symmetry_space_group_name_H-M   'P 1'
_cell_length_a   11.69287432
_cell_length_b   13.41867354
_cell_length_c   12.67417055
_cell_angle_alpha   97.64455553
_cell_angle_beta   80.60118483
_cell_angle_gamma   82.55712765
_symmetry_Int_Tables_number   1
_chemical_formula_structural   Si
_chemical_formula_sum   Si100
_cell_volume   1921.07377325
_cell_formula_units_Z   100
loop_
 _symmetry_equiv_pos_site_id
 _symmetry_equiv_pos_as_xyz
  1  'x, y, z'
loop_
 _atom_site_type_symbol
 _atom_site_label
 _atom_site_symmetry_multiplicity
 _atom_site_fract_x
 _atom_site_fract_y
 _atom_site_fract_z
 _atom_site_occupancy
  Si  Si0  1  0.89617373  0.56727924  0.24038935  1
  Si  Si1  1  0.04272748  0.51778955  0.59892362  1
  Si  Si2  1  0.37047316  0.87516718  0.56377512  1
  Si  Si3  1  0.62212624  0.45266546  0.21570281  1
  Si  Si4  1  0.41547191  0.84404743  0.12301209  1
  Si  Si5  1  0.39135441  0.18655944  0.72942823  1
  Si  Si6  1  0.86109830  0.65875793  0.85917050  1
  Si  Si7  1  0.61816076  0.01615978  0.24552570  1
  Si  Si8  1  0.63337820  0.92457125  0.38579889  1
  Si  Si9  1  0.49063368  0.56476233  0.96998461  1
  Si  Si10  1  0.71391084  0.35344756  0.89189758  1
  Si  Si11  1  0.36667930  0.40294565  0.46208878  1
  Si  Si12  1  0.83329009  0.91027198  0.39114947  1
  Si  Si13  1  0.64316371  0.74405792  0.67599543  1
  Si  Si14  1  0.63682608  0.18864318  0.31092031  1
  Si  Si15  1  0.38394854  0.13105560  0.51153060  1
  Si  Si16  1  0.17818853  0.57956208  0.39423175  1
  Si  Si17  1  0.42764939  0.35792305  0.77247262  1
  Si  Si18  1  0.49768476  0.26156291  0.47534570  1
  Si  Si19  1  0.41511200  0.76608344  0.28005968  1
  Si  Si20  1  0.96504572  0.04389800  0.37287571  1
  Si  Si21  1  0.89230579  0.12059375  0.94471692  1
  Si  Si22  1  0.92499963  0.37272683  0.64929697  1
  Si  Si23  1  0.04301085  0.89369151  0.57274518  1
  Si  Si24  1  0.31276844  0.06772340  0.34989933  1
  Si  Si25  1  0.05492310  0.71154665  0.84896614  1
  Si  Si26  1  0.89680671  0.24263896  0.82793210  1
  Si  Si27  1  0.32922968  0.11650333  0.88756353  1
  Si  Si28  1  0.50703720  0.99170655  0.55168051  1
  Si  Si29  1  0.73072878  0.65019508  0.02064014  1
  Si  Si30  1  0.84889029  0.78892494  0.65592143  1
  Si  Si31  1  0.85853731  0.50710591  0.54176602  1
  Si  Si32  1  0.76313439  0.84265790  0.89622995  1
  Si  Si33  1  0.40200970  0.54284275  0.80824584  1
  Si  Si34  1  0.08353703  0.74954315  0.23625262  1
  Si  Si35  1  0.60721726  0.75771394  0.32709436  1
  Si  Si36  1  0.71836057  0.42113364  0.72439536  1
  Si  Si37  1  0.44576286  0.01514756  0.17554070  1
  Si  Si38  1  0.27614622  0.84551464  0.74017349  1
  Si  Si39  1  0.77813077  0.70184664  0.19015701  1
  Si  Si40  1  0.41382903  0.33213413  0.08871211  1
  Si  Si41  1  0.17793281  0.98702969  0.65350601  1
  Si  Si42  1  0.63110884  0.05392720  0.66829354  1
  Si  Si43  1  0.26281095  0.90413303  0.03032343  1
  Si  Si44  1  0.07170619  0.31364108  0.33129400  1
  Si  Si45  1  0.17346707  0.07668086  0.09675378  1
  Si  Si46  1  0.20962695  0.16104743  0.65518982  1
  Si  Si47  1  0.05110789  0.49653484  0.10088063  1
  Si  Si48  1  0.17883940  0.42653679  0.79127203  1
  Si  Si49  1  0.97439749  0.48254593  0.79499795  1
  Si  Si50  1  0.19949948  0.58870417  0.89019910  1
  Si  Si51  1  0.05000284  0.21413181  0.56949609  1
  Si  Si52  1  0.54212595  0.11793473  0.85352673  1
  Si  Si53  1  0.86552572  0.35493398  0.40825926  1
  Si  Si54  1  0.29704202  0.90257875  0.40054220  1
  Si  Si55  1  0.96514835  0.41082153  0.96496570  1
  Si  Si56  1  0.52870959  0.29602350  0.90673386  1
  Si  Si57  1  0.50438346  0.61952656  0.67088756  1
  Si  Si58  1  0.09509458  0.85548223  0.95750641  1
  Si  Si59  1  0.11246167  0.12203448  0.93405684  1
  Si  Si60  1  0.66130038  0.49327825  0.03185580  1
  Si  Si61  1  0.83821204  0.17142116  0.13986717  1
  Si  Si62  1  0.74652290  0.59450074  0.71862314  1
  Si  Si63  1  0.88726426  0.15123642  0.65743154  1
  Si  Si64  1  0.87518851  0.96812580  0.83290803  1
  Si  Si65  1  0.68693881  0.18352234  0.03047068  1
  Si  Si66  1  0.57454655  0.04910540  0.01413442  1
  Si  Si67  1  0.98782368  0.06662320  0.19293133  1
  Si  Si68  1  0.47803451  0.52017797  0.37995662  1
  Si  Si69  1  0.90062177  0.82530025  0.21059493  1
  Si  Si70  1  0.10331583  0.88643386  0.38039918  1
  Si  Si71  1  0.05474951  0.74584522  0.66927530  1
  Si  Si72  1  0.35659312  0.51868024  0.10783069  1
  Si  Si73  1  0.21970780  0.63906137  0.56583439  1
  Si  Si74  1  0.27242754  0.21931242  0.06555181  1
  Si  Si75  1  0.84410911  0.97789684  0.65593037  1
  Si  Si76  1  0.80341663  0.42875504  0.26600684  1
  Si  Si77  1  0.57132611  0.83783779  0.85097867  1
  Si  Si78  1  0.41288890  0.68790325  0.53775175  1
  Si  Si79  1  0.85207221  0.75899331  0.46970326  1
  Si  Si80  1  0.61822673  0.51887669  0.50719522  1
  Si  Si81  1  0.54726174  0.73027132  0.98602395  1
  Si  Si82  1  0.93073774  0.93492908  0.08573907  1
  Si  Si83  1  0.09703502  0.33233845  0.14496094  1
  Si  Si84  1  0.09518744  0.27254329  0.84371846  1
  Si  Si85  1  0.29009984  0.49298965  0.64117821  1
  Si  Si86  1  0.73307242  0.94860121  0.06997265  1
  Si  Si87  1  0.37730541  0.93377995  0.86698224  1
  Si  Si88  1  0.70787324  0.19217928  0.59845101  1
  Si  Si89  1  0.11391731  0.15330757  0.38239896  1
  Si  Si90  1  0.67137007  0.68772066  0.47719201  1
  Si  Si91  1  0.79820657  0.18904791  0.41598726  1
  Si  Si92  1  0.18073456  0.61265034  0.08360540  1
  Si  Si93  1  0.57278898  0.29129047  0.18201330  1
  Si  Si94  1  0.35039885  0.60548916  0.28292226  1
  Si  Si95  1  0.90702527  0.32115602  0.11000593  1
  Si  Si96  1  0.17056329  0.41671142  0.43830740  1
  Si  Si97  1  0.58300159  0.34676086  0.62129775  1
  Si  Si98  1  0.00238840  0.64795352  0.35581991  1
  Si  Si99  1  0.08334169  0.96794150  0.83021497  1
# generated using pymatgen
data_Si
_symmetry_space_group_name_H-M   'P 1'
_cell_length_a   11.69287432
_cell_length_b   13.41867354
_cell_length_c   12.67417055
_cell_angle_alpha   97.64455553
_cell_angle_beta   80.60118483
_cell_angle_gamma   82.55712765
_symmetry_Int_Tables_number   1
_chemical_formula_structural   Si
_chemical_formula_sum   Si100
_cell_volume   1921.07377325
_cell_formula_units_Z   100
loop_
 _symmetry_equiv_pos_site_id
 _symmetry_equiv_pos_as_xyz
  1  'x, y, z'
loop_
 _atom_site_type_symbol
 _atom_site_label
 _atom_site_symmetry_multiplicity
 _atom_site_fract_x
 _atom_site_fract_y
 _atom_site_fract_z
 _atom_site_occupancy
  Si  Si0  1  0.89617373  0.56727924  0.24038935  1
  Si  Si1  1  0.04272748  0.51778955  0.59892362  1
  Si  Si2  1  0.37047316  0.87516718  0.56377512  1
  Si  Si3  1  0.62212624  0.45266546  0.21570281  1
  Si  Si4  1  0.41547191  0.84404743  0.12301209  1
  Si  Si5  1  0.39135441  0.18655944  0.72942823  1
  Si  Si6  1  0.86109830  0.65875793  0.85917050  1
  Si  Si7  1  0.61816076  0.01615978  0.24552570  1
  Si  Si8  1  0.63337820  0.92457125  0.38579889  1
  Si  Si9  1  0.49063368  0.56476233  0.96998461  1
  Si  Si10  1  0.71391084  0.35344756  0.89189758  1
  Si  Si11  1  0.36667930  0.40294565  0.46208878  1
  Si  Si12  1  0.83329009  0.91027198  0.39114947  1
  Si  Si13  1  0.64316371  0.74405792  0.67599543  1
  Si  Si14  1  0.63682608  0.18864318  0.31092031  1
  Si  Si15  1  0.38394854  0.13105560  0.51153060  1
  Si  Si16  1  0.17818853  0.57956208  0.39423175  1
  Si  Si17  1  0.42764939  0.35792305  0.77247262  1
  Si  Si18  1  0.49768476  0.26156291  0.47534570  1
  Si  Si19  1  0.41511200  0.76608344  0.28005968  1
  Si  Si20  1  0.96504572  0.04389800  0.37287571  1
  Si  Si21  1  0.89230579  0.12059375  0.94471692  1
  Si  Si22  1  0.92499963  0.37272683  0.64929697  1
  Si  Si23  1  0.04301085  0.89369151  0.57274518  1
  Si  Si24  1  0.31276844  0.06772340  0.34989933  1
  Si  Si25  1  0.05492310  0.71154665  0.84896614  1
  Si  Si26  1  0.89680671  0.24263896  0.82793210  1
  Si  Si27  1  0.32922968  0.11650333  0.88756353  1
  Si  Si28  1  0.50703720  0.99170655  0.55168051  1
  Si  Si29  1  0.73072878  0.65019508  0.02064014  1
  Si  Si30  1  0.84889029  0.78892494  0.65592143  1
  Si  Si31  1  0.85853731  0.50710591  0.54176602  1
  Si  Si32  1  0.76313439  0.84265790  0.89622995  1
  Si  Si33  1  0.40200970  0.54284275  0.80824584  1
  Si  Si34  1  0.08353703  0.74954315  0.23625262  1
  Si  Si35  1  0.60721726  0.75771394  0.32709436  1
  Si  Si36  1  0.71836057  0.42113364  0.72439536  1
  Si  Si37  1  0.44576286  0.01514756  0.17554070  1
  Si  Si38  1  0.27614622  0.84551464  0.74017349  1
  Si  Si39  1  0.77813077  0.70184664  0.19015701  1
  Si  Si40  1  0.41382903  0.33213413  0.08871211  1
  Si  Si41  1  0.17793281  0.98702969  0.65350601  1
  Si  Si42  1  0.63110884  0.05392720  0.66829354  1
  Si  Si43  1  0.26281095  0.90413303  0.03032343  1
  Si  Si44  1  0.07170619  0.31364108  0.33129400  1
  Si  Si45  1  0.17346707  0.07668086  0.09675378  1
  Si  Si46  1  0.20962695  0.16104743  0.65518982  1
  Si  Si47  1  0.05110789  0.49653484  0.10088063  1
  Si  Si48  1  0.17883940  0.42653679  0.79127203  1
  Si  Si49  1  0.97439749  0.48254593  0.79499795  1
  Si  Si50  1  0.19949948  0.58870417  0.89019910  1
  Si  Si51  1  0.05000284  0.21413181  0.56949609  1
  Si  Si52  1  0.54212595  0.11793473  0.85352673  1
  Si  Si53  1  0.86552572  0.35493398  0.40825926  1
  Si  Si54  1  0.29704202  0.90257875  0.40054220  1
  Si  Si55  1  0.96514835  0.41082153  0.96496570  1
  Si  Si56  1  0.52870959  0.29602350  0.90673386  1
  Si  Si57  1  0.50438346  0.61952656  0.67088756  1
  Si  Si58  1  0.09509458  0.85548223  0.95750641  1
  Si  Si59  1  0.11246167  0.12203448  0.93405684  1
  Si  Si60  1  0.66130038  0.49327825  0.03185580  1
  Si  Si61  1  0.83821204  0.17142116  0.13986717  1
  Si  Si62  1  0.74652290  0.59450074  0.71862314  1
  Si  Si63  1  0.88726426  0.15123642  0.65743154  1
  Si  Si64  1  0.87518851  0.96812580  0.83290803  1
  Si  Si65  1  0.68693881  0.18352234  0.03047068  1
  Si  Si66  1  0.57454655  0.04910540  0.01413442  1
  Si  Si67  1  0.98782368  0.06662320  0.19293133  1
  Si  Si68  1  0.47803451  0.52017797  0.37995662  1
  Si  Si69  1  0.90062177  0.82530025  0.21059493  1
  Si  Si70  1  0.10331583  0.88643386  0.38039918  1
  Si  Si71  1  0.05474951  0.74584522  0.66927530  1
  Si  Si72  1  0.35659312  0.51868024  0.10783069  1
  Si  Si73  1  0.21970780  0.63906137  0.56583439  1
  Si  Si74  1  0.27242754  0.21931242  0.06555181  1
  Si  Si75  1  0.84410911  0.97789684  0.65593037  1
  Si  Si76  1  0.80341663  0.42875504  0.26600684  1
  Si  Si77  1  0.57132611  0.83783779  0.85097867  1
  Si  Si78  1  0.41288890  0.68790325  0.53775175  1
  Si  Si79  1  0.85207221  0.75899331  0.46970326  1
  Si  Si80  1  0.61822673  0.51887669  0.50719522  1
  Si  Si81  1  0.54726174  0.73027132  0.98602395  1
  Si  Si82  1  0.93073774  0.93492908  0.08573907  1
  Si  Si83  1  0.09703502  0.33233845  0.14496094  1
  Si  Si84  1  0.09518744  0.27254329  0.84371846  1
  Si  Si85  1  0.29009984  0.49298965  0.64117821  1
  Si  Si86  1  0.73307242  0.94860121  0.06997265  1
  Si  Si87  1  0.37730541  0.93377995  0.86698224  1
  Si  Si88  1  0.70787324  0.19217928  0.59845101  1
  Si  Si89  1  0.11391731  0.15330757  0.38239896  1
  Si  Si90  1  0.67137007  0.68772066  0.47719201  1
  Si  Si91  1  0.79820657  0.18904791  0.41598726  1
  Si  Si92  1  0.18073456  0.61265034  0.08360540  1
  Si  Si93  1  0.57278898  0.29129047  0.18201330  1
  Si  Si94  1  0.35039885  0.60548916  0.28292226  1
  Si  Si95  1  0.90702527  0.32115602  0.11000593  1
  Si  Si96  1  0.17056329  0.41671142  0.43830740  1
  Si  Si97  1  0.58300159  0.34676086  0.62129775  1
  Si  Si98  1  0.00238840  0.64795352  0.35581991  1
  Si  Si99  1  0.08334169  0.96794150  0.83021497  1
# generated using pymatgen
data_Si
_symmetry_space_group_name_H-M   'P 1'
_cell_length_a   11.69287432
_cell_length_b   13.41867354
_cell_length_c   12.67417055
_cell_angle_alpha   97.64455553
_cell_angle_beta   80.60118483
_cell_angle_gamma   82.55712765
_symmetry_Int_Tables_number   1
_chemical_formula_structural   Si
_chemical_formula_sum   Si100
_cell_volume   1921.07377325
_cell_formula_units_Z   100
loop_
 _symmetry_equiv_pos_site_id
 _symmetry_equiv_pos_as_xyz
  1  'x, y, z'
loop_
 _atom_site_type_symbol
 _atom_site_label
 _atom_site_symmetry_multiplicity
 _atom_site_fract_x
 _atom_site_fract_y
 _atom_site_fract_z
 _atom_site_occupancy
  Si  Si0  1  0.89617373  0.56727924  0.24038935  1
  Si  Si1  1  0.04272748  0.51778955  0.59892362  1
  Si  Si2  1  0.37047316  0.87516718  0.56377512  1
  Si  Si3  1  0.62212624  0.45266546  0.21570281  1
  Si  Si4  1  0.41547191  0.84404743  0.12301209  1
  Si  Si5  1  0.39135441  0.18655944  0.72942823  1
  Si  Si6  1  0.86109830  0.65875793  0.85917050  1
  Si  Si7  1  0.61816076  0.01615978  0.24552570  1
  Si  Si8  1  0.63337820  0.92457125  0.38579889  1
  Si  Si9  1  0.49063368  0.56476233  0.96998461  1
  Si  Si10  1  0.71391084  0.35344756  0.89189758  1
  Si  Si11  1  0.36667930  0.40294565  0.46208878  1
  Si  Si12  1  0.83329009  0.91027198  0.39114947  1
  Si  Si13  1  0.64316371  0.74405792  0.67599543  1
  Si  Si14  1  0.63682608  0.18864318  0.31092031  1
  Si  Si15  1  0.38394854  0.13105560  0.51153060  1
  Si  Si16  1  0.17818853  0.57956208  0.39423175  1
  Si  Si17  1  0.42764939  0.35792305  0.77247262  1
  Si  Si18  1  0.49768476  0.26156291  0.47534570  1
  Si  Si19  1  0.41511200  0.76608344  0.28005968  1
  Si  Si20  1  0.96504572  0.04389800  0.37287571  1
  Si  Si21  1  0.89230579  0.12059375  0.94471692  1
  Si  Si22  1  0.92499963  0.37272683  0.64929697  1
  Si  Si23  1  0.04301085  0.89369151  0.57274518  1
  Si  Si24  1  0.31276844  0.06772340  0.34989933  1
  Si  Si25  1  0.05492310  0.71154665  0.84896614  1
  Si  Si26  1  0.89680671  0.24263896  0.82793210  1
  Si  Si27  1  0.32922968  0.11650333  0.88756353  1
  Si  Si28  1  0.50703720  0.99170655  0.55168051  1
  Si  Si29  1  0.73072878  0.65019508  0.02064014  1
  Si  Si30  1  0.84889029  0.78892494  0.65592143  1
  Si  Si31  1  0.85853731  0.50710591  0.54176602  1
  Si  Si32  1  0.76313439  0.84265790  0.89622995  1
  Si  Si33  1  0.40200970  0.54284275  0.80824584  1
  Si  Si34  1  0.08353703  0.74954315  0.23625262  1
  Si  Si35  1  0.60721726  0.75771394  0.32709436  1
  Si  Si36  1  0.71836057  0.42113364  0.72439536  1
  Si  Si37  1  0.44576286  0.01514756  0.17554070  1
  Si  Si38  1  0.27614622  0.84551464  0.74017349  1
  Si  Si39  1  0.77813077  0.70184664  0.19015701  1
  Si  Si40  1  0.41382903  0.33213413  0.08871211  1
  Si  Si41  1  0.17793281  0.98702969  0.65350601  1
  Si  Si42  1  0.63110884  0.05392720  0.66829354  1
  Si  Si43  1  0.26281095  0.90413303  0.03032343  1
  Si  Si44  1  0.07170619  0.31364108  0.33129400  1
  Si  Si45  1  0.17346707  0.07668086  0.09675378  1
  Si  Si46  1  0.20962695  0.16104743  0.65518982  1
  Si  Si47  1  0.05110789  0.49653484  0.10088063  1
  Si  Si48  1  0.17883940  0.42653679  0.79127203  1
  Si  Si49  1  0.97439749  0.48254593  0.79499795  1
  Si  Si50  1  0.19949948  0.58870417  0.89019910  1
  Si  Si51  1  0.05000284  0.21413181  0.56949609  1
  Si  Si52  1  0.54212595  0.11793473  0.85352673  1
  Si  Si53  1  0.86552572  0.35493398  0.40825926  1
  Si  Si54  1  0.29704202  0.90257875  0.40054220  1
  Si  Si55  1  0.96514835  0.41082153  0.96496570  1
  Si  Si56  1  0.52870959  0.29602350  0.90673386  1
  Si  Si57  1  0.50438346  0.61952656  0.67088756  1
  Si  Si58  1  0.09509458  0.85548223  0.95750641  1
  Si  Si59  1  0.11246167  0.12203448  0.93405684  1
  Si  Si60  1  0.66130038  0.49327825  0.03185580  1
  Si  Si61  1  0.83821204  0.17142116  0.13986717  1
  Si  Si62  1  0.74652290  0.59450074  0.71862314  1
  Si  Si63  1  0.88726426  0.15123642  0.65743154  1
  Si  Si64  1  0.87518851  0.96812580  0.83290803  1
  Si  Si65  1  0.68693881  0.18352234  0.03047068  1
  Si  Si66  1  0.57454655  0.04910540  0.01413442  1
  Si  Si67  1  0.98782368  0.06662320  0.19293133  1
  Si  Si68  1  0.47803451  0.52017797  0.37995662  1
  Si  Si69  1  0.90062177  0.82530025  0.21059493  1
  Si  Si70  1  0.10331583  0.88643386  0.38039918  1
  Si  Si71  1  0.05474951  0.74584522  0.66927530  1
  Si  Si72  1  0.35659312  0.51868024  0.10783069  1
  Si  Si73  1  0.21970780  0.63906137  0.56583439  1
  Si  Si74  1  0.27242754  0.21931242  0.06555181  1
  Si  Si75  1  0.84410911  0.97789684  0.65593037  1
  Si  Si76  1  0.80341663  0.42875504  0.26600684  1
  Si  Si77  1  0.57132611  0.83783779  0.85097867  1
  Si  Si78  1  0.41288890  0.68790325  0.53775175  1
  Si  Si79  1  0.85207221  0.75899331  0.46970326  1
  Si  Si80  1  0.61822673  0.51887669  0.50719522  1
  Si  Si81  1  0.54726174  0.73027132  0.98602395  1
  Si  Si82  1  0.93073774  0.93492908  0.08573907  1
  Si  Si83  1  0.09703502  0.33233845  0.14496094  1
  Si  Si84  1  0.09518744  0.27254329  0.84371846  1
  Si  Si85  1  0.29009984  0.49298965  0.64117821  1
  Si  Si86  1  0.73307242  0.94860121  0.06997265  1
  Si  Si87  1  0.37730541  0.93377995  0.86698224  1
  Si  Si88  1  0.70787324  0.19217928  0.59845101  1
  Si  Si89  1  0.11391731  0.15330757  0.38239896  1
  Si  Si90  1  0.67137007  0.68772066  0.47719201  1
  Si  Si91  1  0.79820657  0.18904791  0.41598726  1
  Si  Si92  1  0.18073456  0.61265034  0.08360540  1
  Si  Si93  1  0.57278898  0.29129047  0.18201330  1
  Si  Si94  1  0.35039885  0.60548916  0.28292226  1
  Si  Si95  1  0.90702527  0.32115602  0.11000593  1
  Si  Si96  1  0.17056329  0.41671142  0.43830740  1
  Si  Si97  1  0.58300159  0.34676086  0.62129775  1
  Si  Si98  1  0.00238840  0.64795352  0.35581991  1
  Si  Si99  1  0.08334169  0.96794150  0.83021497  1
