# generated using pymatgen
data_Si
_symmetry_space_group_name_H-M   'P 1'
_cell_length_a   10.58979747
_cell_length_b   10.58979747
_cell_length_c   10.03420900
_cell_angle_alpha   90.00000000
_cell_angle_beta   90.00000000
_cell_angle_gamma   105.07913234
_symmetry_Int_Tables_number   1
_chemical_formula_structural   Si
_chemical_formula_sum   Si46
_cell_volume   1086.52835900
_cell_formula_units_Z   46
loop_
 _symmetry_equiv_pos_site_id
 _symmetry_equiv_pos_as_xyz
  1  'x, y, z'
loop_
 _atom_site_type_symbol
 _atom_site_label
 _atom_site_symmetry_multiplicity
 _atom_site_fract_x
 _atom_site_fract_y
 _atom_site_fract_z
 _atom_site_occupancy
  Si  Si0  1  0.09363600  0.33153900  0.05902500  1
  Si  Si1  1  0.66846100  0.90636400  0.94097500  1
  Si  Si2  1  0.09363600  0.33153900  0.44097500  1
  Si  Si3  1  0.66846100  0.90636400  0.55902500  1
  Si  Si4  1  0.90636400  0.66846100  0.94097500  1
  Si  Si5  1  0.33153900  0.09363600  0.05902500  1
  Si  Si6  1  0.90636400  0.66846100  0.55902500  1
  Si  Si7  1  0.33153900  0.09363600  0.44097500  1
  Si  Si8  1  0.19947100  0.55147400  0.12650800  1
  Si  Si9  1  0.44852500  0.80052900  0.87349200  1
  Si  Si10  1  0.19947100  0.55147400  0.37349200  1
  Si  Si11  1  0.44852500  0.80052900  0.62650800  1
  Si  Si12  1  0.80052900  0.44852500  0.87349200  1
  Si  Si13  1  0.55147400  0.19947100  0.12650800  1
  Si  Si14  1  0.80052900  0.44852500  0.62650800  1
  Si  Si15  1  0.55147400  0.19947100  0.37349200  1
  Si  Si16  1  0.11068100  0.72642200  0.05923100  1
  Si  Si17  1  0.27357800  0.88931900  0.94076900  1
  Si  Si18  1  0.11068100  0.72642200  0.44076900  1
  Si  Si19  1  0.27357800  0.88931900  0.55923100  1
  Si  Si20  1  0.88931900  0.27357800  0.94076900  1
  Si  Si21  1  0.72642200  0.11068100  0.05923100  1
  Si  Si22  1  0.88931900  0.27357800  0.55923100  1
  Si  Si23  1  0.72642200  0.11068100  0.44076900  1
  Si  Si24  1  0.39913900  0.60086100  0.00000000  1
  Si  Si25  1  0.39913900  0.60086100  0.50000000  1
  Si  Si26  1  0.60086100  0.39913900  0.00000000  1
  Si  Si27  1  0.60086100  0.39913900  0.50000000  1
  Si  Si28  1  0.24807300  0.24807300  0.93905600  1
  Si  Si29  1  0.75192700  0.75192700  0.06094400  1
  Si  Si30  1  0.24807300  0.24807300  0.56094400  1
  Si  Si31  1  0.75192700  0.75192700  0.43905600  1
  Si  Si32  1  0.42083300  0.42083300  0.86885700  1
  Si  Si33  1  0.57916700  0.57916700  0.13114300  1
  Si  Si34  1  0.42083300  0.42083300  0.63114300  1
  Si  Si35  1  0.57916700  0.57916700  0.36885700  1
  Si  Si36  1  0.15991900  0.92839200  0.75000000  1
  Si  Si37  1  0.07160800  0.84008100  0.25000000  1
  Si  Si38  1  0.84008100  0.07160800  0.25000000  1
  Si  Si39  1  0.92839200  0.15991900  0.75000000  1
  Si  Si40  1  0.80085800  0.94241600  0.75000000  1
  Si  Si41  1  0.05758400  0.19914200  0.25000000  1
  Si  Si42  1  0.19914200  0.05758400  0.25000000  1
  Si  Si43  1  0.94241600  0.80085800  0.75000000  1
  Si  Si44  1  0.14384800  0.14384800  0.75000000  1
  Si  Si45  1  0.85615200  0.85615200  0.25000000  1
# generated using pymatgen
data_Si
_symmetry_space_group_name_H-M   'P 1'
_cell_length_a   10.58979747
_cell_length_b   10.58979747
_cell_length_c   10.03420900
_cell_angle_alpha   90.00000000
_cell_angle_beta   90.00000000
_cell_angle_gamma   105.07913234
_symmetry_Int_Tables_number   1
_chemical_formula_structural   Si
_chemical_formula_sum   Si46
_cell_volume   1086.52835900
_cell_formula_units_Z   46
loop_
 _symmetry_equiv_pos_site_id
 _symmetry_equiv_pos_as_xyz
  1  'x, y, z'
loop_
 _atom_site_type_symbol
 _atom_site_label
 _atom_site_symmetry_multiplicity
 _atom_site_fract_x
 _atom_site_fract_y
 _atom_site_fract_z
 _atom_site_occupancy
  Si  Si0  1  0.09363600  0.33153900  0.05902500  1
  Si  Si1  1  0.66846100  0.90636400  0.94097500  1
  Si  Si2  1  0.09363600  0.33153900  0.44097500  1
  Si  Si3  1  0.66846100  0.90636400  0.55902500  1
  Si  Si4  1  0.90636400  0.66846100  0.94097500  1
  Si  Si5  1  0.33153900  0.09363600  0.05902500  1
  Si  Si6  1  0.90636400  0.66846100  0.55902500  1
  Si  Si7  1  0.33153900  0.09363600  0.44097500  1
  Si  Si8  1  0.19947100  0.55147400  0.12650800  1
  Si  Si9  1  0.44852500  0.80052900  0.87349200  1
  Si  Si10  1  0.19947100  0.55147400  0.37349200  1
  Si  Si11  1  0.44852500  0.80052900  0.62650800  1
  Si  Si12  1  0.80052900  0.44852500  0.87349200  1
  Si  Si13  1  0.55147400  0.19947100  0.12650800  1
  Si  Si14  1  0.80052900  0.44852500  0.62650800  1
  Si  Si15  1  0.55147400  0.19947100  0.37349200  1
  Si  Si16  1  0.11068100  0.72642200  0.05923100  1
  Si  Si17  1  0.27357800  0.88931900  0.94076900  1
  Si  Si18  1  0.11068100  0.72642200  0.44076900  1
  Si  Si19  1  0.27357800  0.88931900  0.55923100  1
  Si  Si20  1  0.88931900  0.27357800  0.94076900  1
  Si  Si21  1  0.72642200  0.11068100  0.05923100  1
  Si  Si22  1  0.88931900  0.27357800  0.55923100  1
  Si  Si23  1  0.72642200  0.11068100  0.44076900  1
  Si  Si24  1  0.39913900  0.60086100  0.00000000  1
  Si  Si25  1  0.39913900  0.60086100  0.50000000  1
  Si  Si26  1  0.60086100  0.39913900  0.00000000  1
  Si  Si27  1  0.60086100  0.39913900  0.50000000  1
  Si  Si28  1  0.24807300  0.24807300  0.93905600  1
  Si  Si29  1  0.75192700  0.75192700  0.06094400  1
  Si  Si30  1  0.24807300  0.24807300  0.56094400  1
  Si  Si31  1  0.75192700  0.75192700  0.43905600  1
  Si  Si32  1  0.42083300  0.42083300  0.86885700  1
  Si  Si33  1  0.57916700  0.57916700  0.13114300  1
  Si  Si34  1  0.42083300  0.42083300  0.63114300  1
  Si  Si35  1  0.57916700  0.57916700  0.36885700  1
  Si  Si36  1  0.15991900  0.92839200  0.75000000  1
  Si  Si37  1  0.07160800  0.84008100  0.25000000  1
  Si  Si38  1  0.84008100  0.07160800  0.25000000  1
  Si  Si39  1  0.92839200  0.15991900  0.75000000  1
  Si  Si40  1  0.80085800  0.94241600  0.75000000  1
  Si  Si41  1  0.05758400  0.19914200  0.25000000  1
  Si  Si42  1  0.19914200  0.05758400  0.25000000  1
  Si  Si43  1  0.94241600  0.80085800  0.75000000  1
  Si  Si44  1  0.14384800  0.14384800  0.75000000  1
  Si  Si45  1  0.85615200  0.85615200  0.25000000  1
# generated using pymatgen
data_Si
_symmetry_space_group_name_H-M   'P 1'
_cell_length_a   10.58979747
_cell_length_b   10.58979747
_cell_length_c   10.03420900
_cell_angle_alpha   90.00000000
_cell_angle_beta   90.00000000
_cell_angle_gamma   105.07913234
_symmetry_Int_Tables_number   1
_chemical_formula_structural   Si
_chemical_formula_sum   Si46
_cell_volume   1086.52835900
_cell_formula_units_Z   46
loop_
 _symmetry_equiv_pos_site_id
 _symmetry_equiv_pos_as_xyz
  1  'x, y, z'
loop_
 _atom_site_type_symbol
 _atom_site_label
 _atom_site_symmetry_multiplicity
 _atom_site_fract_x
 _atom_site_fract_y
 _atom_site_fract_z
 _atom_site_occupancy
  Si  Si0  1  0.09363600  0.33153900  0.05902500  1
  Si  Si1  1  0.66846100  0.90636400  0.94097500  1
  Si  Si2  1  0.09363600  0.33153900  0.44097500  1
  Si  Si3  1  0.66846100  0.90636400  0.55902500  1
  Si  Si4  1  0.90636400  0.66846100  0.94097500  1
  Si  Si5  1  0.33153900  0.09363600  0.05902500  1
  Si  Si6  1  0.90636400  0.66846100  0.55902500  1
  Si  Si7  1  0.33153900  0.09363600  0.44097500  1
  Si  Si8  1  0.19947100  0.55147400  0.12650800  1
  Si  Si9  1  0.44852500  0.80052900  0.87349200  1
  Si  Si10  1  0.19947100  0.55147400  0.37349200  1
  Si  Si11  1  0.44852500  0.80052900  0.62650800  1
  Si  Si12  1  0.80052900  0.44852500  0.87349200  1
  Si  Si13  1  0.55147400  0.19947100  0.12650800  1
  Si  Si14  1  0.80052900  0.44852500  0.62650800  1
  Si  Si15  1  0.55147400  0.19947100  0.37349200  1
  Si  Si16  1  0.11068100  0.72642200  0.05923100  1
  Si  Si17  1  0.27357800  0.88931900  0.94076900  1
  Si  Si18  1  0.11068100  0.72642200  0.44076900  1
  Si  Si19  1  0.27357800  0.88931900  0.55923100  1
  Si  Si20  1  0.88931900  0.27357800  0.94076900  1
  Si  Si21  1  0.72642200  0.11068100  0.05923100  1
  Si  Si22  1  0.88931900  0.27357800  0.55923100  1
  Si  Si23  1  0.72642200  0.11068100  0.44076900  1
  Si  Si24  1  0.39913900  0.60086100  0.00000000  1
  Si  Si25  1  0.39913900  0.60086100  0.50000000  1
  Si  Si26  1  0.60086100  0.39913900  0.00000000  1
  Si  Si27  1  0.60086100  0.39913900  0.50000000  1
  Si  Si28  1  0.24807300  0.24807300  0.93905600  1
  Si  Si29  1  0.75192700  0.75192700  0.06094400  1
  Si  Si30  1  0.24807300  0.24807300  0.56094400  1
  Si  Si31  1  0.75192700  0.75192700  0.43905600  1
  Si  Si32  1  0.42083300  0.42083300  0.86885700  1
  Si  Si33  1  0.57916700  0.57916700  0.13114300  1
  Si  Si34  1  0.42083300  0.42083300  0.63114300  1
  Si  Si35  1  0.57916700  0.57916700  0.36885700  1
  Si  Si36  1  0.15991900  0.92839200  0.75000000  1
  Si  Si37  1  0.07160800  0.84008100  0.25000000  1
  Si  Si38  1  0.84008100  0.07160800  0.25000000  1
  Si  Si39  1  0.92839200  0.15991900  0.75000000  1
  Si  Si40  1  0.80085800  0.94241600  0.75000000  1
  Si  Si41  1  0.05758400  0.19914200  0.25000000  1
  Si  Si42  1  0.19914200  0.05758400  0.25000000  1
  Si  Si43  1  0.94241600  0.80085800  0.75000000  1
  Si  Si44  1  0.14384800  0.14384800  0.75000000  1
  Si  Si45  1  0.85615200  0.85615200  0.25000000  1
# generated using pymatgen
data_Si
_symmetry_space_group_name_H-M   'P 1'
_cell_length_a   10.58979747
_cell_length_b   10.58979747
_cell_length_c   10.03420900
_cell_angle_alpha   90.00000000
_cell_angle_beta   90.00000000
_cell_angle_gamma   105.07913234
_symmetry_Int_Tables_number   1
_chemical_formula_structural   Si
_chemical_formula_sum   Si46
_cell_volume   1086.52835900
_cell_formula_units_Z   46
loop_
 _symmetry_equiv_pos_site_id
 _symmetry_equiv_pos_as_xyz
  1  'x, y, z'
loop_
 _atom_site_type_symbol
 _atom_site_label
 _atom_site_symmetry_multiplicity
 _atom_site_fract_x
 _atom_site_fract_y
 _atom_site_fract_z
 _atom_site_occupancy
  Si  Si0  1  0.09363600  0.33153900  0.05902500  1
  Si  Si1  1  0.66846100  0.90636400  0.94097500  1
  Si  Si2  1  0.09363600  0.33153900  0.44097500  1
  Si  Si3  1  0.66846100  0.90636400  0.55902500  1
  Si  Si4  1  0.90636400  0.66846100  0.94097500  1
  Si  Si5  1  0.33153900  0.09363600  0.05902500  1
  Si  Si6  1  0.90636400  0.66846100  0.55902500  1
  Si  Si7  1  0.33153900  0.09363600  0.44097500  1
  Si  Si8  1  0.19947100  0.55147400  0.12650800  1
  Si  Si9  1  0.44852500  0.80052900  0.87349200  1
  Si  Si10  1  0.19947100  0.55147400  0.37349200  1
  Si  Si11  1  0.44852500  0.80052900  0.62650800  1
  Si  Si12  1  0.80052900  0.44852500  0.87349200  1
  Si  Si13  1  0.55147400  0.19947100  0.12650800  1
  Si  Si14  1  0.80052900  0.44852500  0.62650800  1
  Si  Si15  1  0.55147400  0.19947100  0.37349200  1
  Si  Si16  1  0.11068100  0.72642200  0.05923100  1
  Si  Si17  1  0.27357800  0.88931900  0.94076900  1
  Si  Si18  1  0.11068100  0.72642200  0.44076900  1
  Si  Si19  1  0.27357800  0.88931900  0.55923100  1
  Si  Si20  1  0.88931900  0.27357800  0.94076900  1
  Si  Si21  1  0.72642200  0.11068100  0.05923100  1
  Si  Si22  1  0.88931900  0.27357800  0.55923100  1
  Si  Si23  1  0.72642200  0.11068100  0.44076900  1
  Si  Si24  1  0.39913900  0.60086100  0.00000000  1
  Si  Si25  1  0.39913900  0.60086100  0.50000000  1
  Si  Si26  1  0.60086100  0.39913900  0.00000000  1
  Si  Si27  1  0.60086100  0.39913900  0.50000000  1
  Si  Si28  1  0.24807300  0.24807300  0.93905600  1
  Si  Si29  1  0.75192700  0.75192700  0.06094400  1
  Si  Si30  1  0.24807300  0.24807300  0.56094400  1
  Si  Si31  1  0.75192700  0.75192700  0.43905600  1
  Si  Si32  1  0.42083300  0.42083300  0.86885700  1
  Si  Si33  1  0.57916700  0.57916700  0.13114300  1
  Si  Si34  1  0.42083300  0.42083300  0.63114300  1
  Si  Si35  1  0.57916700  0.57916700  0.36885700  1
  Si  Si36  1  0.15991900  0.92839200  0.75000000  1
  Si  Si37  1  0.07160800  0.84008100  0.25000000  1
  Si  Si38  1  0.84008100  0.07160800  0.25000000  1
  Si  Si39  1  0.92839200  0.15991900  0.75000000  1
  Si  Si40  1  0.80085800  0.94241600  0.75000000  1
  Si  Si41  1  0.05758400  0.19914200  0.25000000  1
  Si  Si42  1  0.19914200  0.05758400  0.25000000  1
  Si  Si43  1  0.94241600  0.80085800  0.75000000  1
  Si  Si44  1  0.14384800  0.14384800  0.75000000  1
  Si  Si45  1  0.85615200  0.85615200  0.25000000  1
# generated using pymatgen
data_Si
_symmetry_space_group_name_H-M   'P 1'
_cell_length_a   10.58979747
_cell_length_b   10.58979747
_cell_length_c   10.03420900
_cell_angle_alpha   90.00000000
_cell_angle_beta   90.00000000
_cell_angle_gamma   105.07913234
_symmetry_Int_Tables_number   1
_chemical_formula_structural   Si
_chemical_formula_sum   Si46
_cell_volume   1086.52835900
_cell_formula_units_Z   46
loop_
 _symmetry_equiv_pos_site_id
 _symmetry_equiv_pos_as_xyz
  1  'x, y, z'
loop_
 _atom_site_type_symbol
 _atom_site_label
 _atom_site_symmetry_multiplicity
 _atom_site_fract_x
 _atom_site_fract_y
 _atom_site_fract_z
 _atom_site_occupancy
  Si  Si0  1  0.09363600  0.33153900  0.05902500  1
  Si  Si1  1  0.66846100  0.90636400  0.94097500  1
  Si  Si2  1  0.09363600  0.33153900  0.44097500  1
  Si  Si3  1  0.66846100  0.90636400  0.55902500  1
  Si  Si4  1  0.90636400  0.66846100  0.94097500  1
  Si  Si5  1  0.33153900  0.09363600  0.05902500  1
  Si  Si6  1  0.90636400  0.66846100  0.55902500  1
  Si  Si7  1  0.33153900  0.09363600  0.44097500  1
  Si  Si8  1  0.19947100  0.55147400  0.12650800  1
  Si  Si9  1  0.44852500  0.80052900  0.87349200  1
  Si  Si10  1  0.19947100  0.55147400  0.37349200  1
  Si  Si11  1  0.44852500  0.80052900  0.62650800  1
  Si  Si12  1  0.80052900  0.44852500  0.87349200  1
  Si  Si13  1  0.55147400  0.19947100  0.12650800  1
  Si  Si14  1  0.80052900  0.44852500  0.62650800  1
  Si  Si15  1  0.55147400  0.19947100  0.37349200  1
  Si  Si16  1  0.11068100  0.72642200  0.05923100  1
  Si  Si17  1  0.27357800  0.88931900  0.94076900  1
  Si  Si18  1  0.11068100  0.72642200  0.44076900  1
  Si  Si19  1  0.27357800  0.88931900  0.55923100  1
  Si  Si20  1  0.88931900  0.27357800  0.94076900  1
  Si  Si21  1  0.72642200  0.11068100  0.05923100  1
  Si  Si22  1  0.88931900  0.27357800  0.55923100  1
  Si  Si23  1  0.72642200  0.11068100  0.44076900  1
  Si  Si24  1  0.39913900  0.60086100  0.00000000  1
  Si  Si25  1  0.39913900  0.60086100  0.50000000  1
  Si  Si26  1  0.60086100  0.39913900  0.00000000  1
  Si  Si27  1  0.60086100  0.39913900  0.50000000  1
  Si  Si28  1  0.24807300  0.24807300  0.93905600  1
  Si  Si29  1  0.75192700  0.75192700  0.06094400  1
  Si  Si30  1  0.24807300  0.24807300  0.56094400  1
  Si  Si31  1  0.75192700  0.75192700  0.43905600  1
  Si  Si32  1  0.42083300  0.42083300  0.86885700  1
  Si  Si33  1  0.57916700  0.57916700  0.13114300  1
  Si  Si34  1  0.42083300  0.42083300  0.63114300  1
  Si  Si35  1  0.57916700  0.57916700  0.36885700  1
  Si  Si36  1  0.15991900  0.92839200  0.75000000  1
  Si  Si37  1  0.07160800  0.84008100  0.25000000  1
  Si  Si38  1  0.84008100  0.07160800  0.25000000  1
  Si  Si39  1  0.92839200  0.15991900  0.75000000  1
  Si  Si40  1  0.80085800  0.94241600  0.75000000  1
  Si  Si41  1  0.05758400  0.19914200  0.25000000  1
  Si  Si42  1  0.19914200  0.05758400  0.25000000  1
  Si  Si43  1  0.94241600  0.80085800  0.75000000  1
  Si  Si44  1  0.14384800  0.14384800  0.75000000  1
  Si  Si45  1  0.85615200  0.85615200  0.25000000  1
# generated using pymatgen
data_Si
_symmetry_space_group_name_H-M   'P 1'
_cell_length_a   10.58979747
_cell_length_b   10.58979747
_cell_length_c   10.03420900
_cell_angle_alpha   90.00000000
_cell_angle_beta   90.00000000
_cell_angle_gamma   105.07913234
_symmetry_Int_Tables_number   1
_chemical_formula_structural   Si
_chemical_formula_sum   Si46
_cell_volume   1086.52835900
_cell_formula_units_Z   46
loop_
 _symmetry_equiv_pos_site_id
 _symmetry_equiv_pos_as_xyz
  1  'x, y, z'
loop_
 _atom_site_type_symbol
 _atom_site_label
 _atom_site_symmetry_multiplicity
 _atom_site_fract_x
 _atom_site_fract_y
 _atom_site_fract_z
 _atom_site_occupancy
  Si  Si0  1  0.09363600  0.33153900  0.05902500  1
  Si  Si1  1  0.66846100  0.90636400  0.94097500  1
  Si  Si2  1  0.09363600  0.33153900  0.44097500  1
  Si  Si3  1  0.66846100  0.90636400  0.55902500  1
  Si  Si4  1  0.90636400  0.66846100  0.94097500  1
  Si  Si5  1  0.33153900  0.09363600  0.05902500  1
  Si  Si6  1  0.90636400  0.66846100  0.55902500  1
  Si  Si7  1  0.33153900  0.09363600  0.44097500  1
  Si  Si8  1  0.19947100  0.55147400  0.12650800  1
  Si  Si9  1  0.44852500  0.80052900  0.87349200  1
  Si  Si10  1  0.19947100  0.55147400  0.37349200  1
  Si  Si11  1  0.44852500  0.80052900  0.62650800  1
  Si  Si12  1  0.80052900  0.44852500  0.87349200  1
  Si  Si13  1  0.55147400  0.19947100  0.12650800  1
  Si  Si14  1  0.80052900  0.44852500  0.62650800  1
  Si  Si15  1  0.55147400  0.19947100  0.37349200  1
  Si  Si16  1  0.11068100  0.72642200  0.05923100  1
  Si  Si17  1  0.27357800  0.88931900  0.94076900  1
  Si  Si18  1  0.11068100  0.72642200  0.44076900  1
  Si  Si19  1  0.27357800  0.88931900  0.55923100  1
  Si  Si20  1  0.88931900  0.27357800  0.94076900  1
  Si  Si21  1  0.72642200  0.11068100  0.05923100  1
  Si  Si22  1  0.88931900  0.27357800  0.55923100  1
  Si  Si23  1  0.72642200  0.11068100  0.44076900  1
  Si  Si24  1  0.39913900  0.60086100  0.00000000  1
  Si  Si25  1  0.39913900  0.60086100  0.50000000  1
  Si  Si26  1  0.60086100  0.39913900  0.00000000  1
  Si  Si27  1  0.60086100  0.39913900  0.50000000  1
  Si  Si28  1  0.24807300  0.24807300  0.93905600  1
  Si  Si29  1  0.75192700  0.75192700  0.06094400  1
  Si  Si30  1  0.24807300  0.24807300  0.56094400  1
  Si  Si31  1  0.75192700  0.75192700  0.43905600  1
  Si  Si32  1  0.42083300  0.42083300  0.86885700  1
  Si  Si33  1  0.57916700  0.57916700  0.13114300  1
  Si  Si34  1  0.42083300  0.42083300  0.63114300  1
  Si  Si35  1  0.57916700  0.57916700  0.36885700  1
  Si  Si36  1  0.15991900  0.92839200  0.75000000  1
  Si  Si37  1  0.07160800  0.84008100  0.25000000  1
  Si  Si38  1  0.84008100  0.07160800  0.25000000  1
  Si  Si39  1  0.92839200  0.15991900  0.75000000  1
  Si  Si40  1  0.80085800  0.94241600  0.75000000  1
  Si  Si41  1  0.05758400  0.19914200  0.25000000  1
  Si  Si42  1  0.19914200  0.05758400  0.25000000  1
  Si  Si43  1  0.94241600  0.80085800  0.75000000  1
  Si  Si44  1  0.14384800  0.14384800  0.75000000  1
  Si  Si45  1  0.85615200  0.85615200  0.25000000  1
