# generated using pymatgen
data_Ge
_symmetry_space_group_name_H-M   'P 1'
_cell_length_a   6.11993334
_cell_length_b   6.11993334
_cell_length_c   6.11993239
_cell_angle_alpha   109.97540036
_cell_angle_beta   109.97540036
_cell_angle_gamma   109.97539261
_symmetry_Int_Tables_number   1
_chemical_formula_structural   Ge
_chemical_formula_sum   Ge8
_cell_volume   173.07655476
_cell_formula_units_Z   8
loop_
 _symmetry_equiv_pos_site_id
 _symmetry_equiv_pos_as_xyz
  1  'x, y, z'
loop_
 _atom_site_type_symbol
 _atom_site_label
 _atom_site_symmetry_multiplicity
 _atom_site_fract_x
 _atom_site_fract_y
 _atom_site_fract_z
 _atom_site_occupancy
  Ge  Ge0  1  0.28551900  0.28551900  0.28551900  1
  Ge  Ge1  1  0.71448100  0.71448100  0.71448100  1
  Ge  Ge2  1  0.97307000  0.46994700  0.27823300  1
  Ge  Ge3  1  0.46994700  0.27823300  0.97307000  1
  Ge  Ge4  1  0.27823300  0.97307000  0.46994700  1
  Ge  Ge5  1  0.02693000  0.53005300  0.72176700  1
  Ge  Ge6  1  0.53005300  0.72176700  0.02693000  1
  Ge  Ge7  1  0.72176700  0.02693000  0.53005300  1
# generated using pymatgen
data_Ge
_symmetry_space_group_name_H-M   'P 1'
_cell_length_a   6.11993334
_cell_length_b   6.11993334
_cell_length_c   6.11993239
_cell_angle_alpha   109.97540036
_cell_angle_beta   109.97540036
_cell_angle_gamma   109.97539261
_symmetry_Int_Tables_number   1
_chemical_formula_structural   Ge
_chemical_formula_sum   Ge8
_cell_volume   173.07655476
_cell_formula_units_Z   8
loop_
 _symmetry_equiv_pos_site_id
 _symmetry_equiv_pos_as_xyz
  1  'x, y, z'
loop_
 _atom_site_type_symbol
 _atom_site_label
 _atom_site_symmetry_multiplicity
 _atom_site_fract_x
 _atom_site_fract_y
 _atom_site_fract_z
 _atom_site_occupancy
  Ge  Ge0  1  0.28551900  0.28551900  0.28551900  1
  Ge  Ge1  1  0.71448100  0.71448100  0.71448100  1
  Ge  Ge2  1  0.97307000  0.46994700  0.27823300  1
  Ge  Ge3  1  0.46994700  0.27823300  0.97307000  1
  Ge  Ge4  1  0.27823300  0.97307000  0.46994700  1
  Ge  Ge5  1  0.02693000  0.53005300  0.72176700  1
  Ge  Ge6  1  0.53005300  0.72176700  0.02693000  1
  Ge  Ge7  1  0.72176700  0.02693000  0.53005300  1
# generated using pymatgen
data_Ge
_symmetry_space_group_name_H-M   'P 1'
_cell_length_a   6.11993334
_cell_length_b   6.11993334
_cell_length_c   6.11993239
_cell_angle_alpha   109.97540036
_cell_angle_beta   109.97540036
_cell_angle_gamma   109.97539261
_symmetry_Int_Tables_number   1
_chemical_formula_structural   Ge
_chemical_formula_sum   Ge8
_cell_volume   173.07655476
_cell_formula_units_Z   8
loop_
 _symmetry_equiv_pos_site_id
 _symmetry_equiv_pos_as_xyz
  1  'x, y, z'
loop_
 _atom_site_type_symbol
 _atom_site_label
 _atom_site_symmetry_multiplicity
 _atom_site_fract_x
 _atom_site_fract_y
 _atom_site_fract_z
 _atom_site_occupancy
  Ge  Ge0  1  0.28551900  0.28551900  0.28551900  1
  Ge  Ge1  1  0.71448100  0.71448100  0.71448100  1
  Ge  Ge2  1  0.97307000  0.46994700  0.27823300  1
  Ge  Ge3  1  0.46994700  0.27823300  0.97307000  1
  Ge  Ge4  1  0.27823300  0.97307000  0.46994700  1
  Ge  Ge5  1  0.02693000  0.53005300  0.72176700  1
  Ge  Ge6  1  0.53005300  0.72176700  0.02693000  1
  Ge  Ge7  1  0.72176700  0.02693000  0.53005300  1
# generated using pymatgen
data_Ge
_symmetry_space_group_name_H-M   'P 1'
_cell_length_a   6.11993334
_cell_length_b   6.11993334
_cell_length_c   6.11993239
_cell_angle_alpha   109.97540036
_cell_angle_beta   109.97540036
_cell_angle_gamma   109.97539261
_symmetry_Int_Tables_number   1
_chemical_formula_structural   Ge
_chemical_formula_sum   Ge8
_cell_volume   173.07655476
_cell_formula_units_Z   8
loop_
 _symmetry_equiv_pos_site_id
 _symmetry_equiv_pos_as_xyz
  1  'x, y, z'
loop_
 _atom_site_type_symbol
 _atom_site_label
 _atom_site_symmetry_multiplicity
 _atom_site_fract_x
 _atom_site_fract_y
 _atom_site_fract_z
 _atom_site_occupancy
  Ge  Ge0  1  0.28551900  0.28551900  0.28551900  1
  Ge  Ge1  1  0.71448100  0.71448100  0.71448100  1
  Ge  Ge2  1  0.97307000  0.46994700  0.27823300  1
  Ge  Ge3  1  0.46994700  0.27823300  0.97307000  1
  Ge  Ge4  1  0.27823300  0.97307000  0.46994700  1
  Ge  Ge5  1  0.02693000  0.53005300  0.72176700  1
  Ge  Ge6  1  0.53005300  0.72176700  0.02693000  1
  Ge  Ge7  1  0.72176700  0.02693000  0.53005300  1
# generated using pymatgen
data_Ge
_symmetry_space_group_name_H-M   'P 1'
_cell_length_a   6.11993334
_cell_length_b   6.11993334
_cell_length_c   6.11993239
_cell_angle_alpha   109.97540036
_cell_angle_beta   109.97540036
_cell_angle_gamma   109.97539261
_symmetry_Int_Tables_number   1
_chemical_formula_structural   Ge
_chemical_formula_sum   Ge8
_cell_volume   173.07655476
_cell_formula_units_Z   8
loop_
 _symmetry_equiv_pos_site_id
 _symmetry_equiv_pos_as_xyz
  1  'x, y, z'
loop_
 _atom_site_type_symbol
 _atom_site_label
 _atom_site_symmetry_multiplicity
 _atom_site_fract_x
 _atom_site_fract_y
 _atom_site_fract_z
 _atom_site_occupancy
  Ge  Ge0  1  0.28551900  0.28551900  0.28551900  1
  Ge  Ge1  1  0.71448100  0.71448100  0.71448100  1
  Ge  Ge2  1  0.97307000  0.46994700  0.27823300  1
  Ge  Ge3  1  0.46994700  0.27823300  0.97307000  1
  Ge  Ge4  1  0.27823300  0.97307000  0.46994700  1
  Ge  Ge5  1  0.02693000  0.53005300  0.72176700  1
  Ge  Ge6  1  0.53005300  0.72176700  0.02693000  1
  Ge  Ge7  1  0.72176700  0.02693000  0.53005300  1
# generated using pymatgen
data_Ge
_symmetry_space_group_name_H-M   'P 1'
_cell_length_a   6.11993334
_cell_length_b   6.11993334
_cell_length_c   6.11993239
_cell_angle_alpha   109.97540036
_cell_angle_beta   109.97540036
_cell_angle_gamma   109.97539261
_symmetry_Int_Tables_number   1
_chemical_formula_structural   Ge
_chemical_formula_sum   Ge8
_cell_volume   173.07655476
_cell_formula_units_Z   8
loop_
 _symmetry_equiv_pos_site_id
 _symmetry_equiv_pos_as_xyz
  1  'x, y, z'
loop_
 _atom_site_type_symbol
 _atom_site_label
 _atom_site_symmetry_multiplicity
 _atom_site_fract_x
 _atom_site_fract_y
 _atom_site_fract_z
 _atom_site_occupancy
  Ge  Ge0  1  0.28551900  0.28551900  0.28551900  1
  Ge  Ge1  1  0.71448100  0.71448100  0.71448100  1
  Ge  Ge2  1  0.97307000  0.46994700  0.27823300  1
  Ge  Ge3  1  0.46994700  0.27823300  0.97307000  1
  Ge  Ge4  1  0.27823300  0.97307000  0.46994700  1
  Ge  Ge5  1  0.02693000  0.53005300  0.72176700  1
  Ge  Ge6  1  0.53005300  0.72176700  0.02693000  1
  Ge  Ge7  1  0.72176700  0.02693000  0.53005300  1
