# generated using pymatgen
data_Si
_symmetry_space_group_name_H-M   'P 1'
_cell_length_a   10.01843953
_cell_length_b   10.01843953
_cell_length_c   16.11677800
_cell_angle_alpha   90.00000000
_cell_angle_beta   90.00000000
_cell_angle_gamma   119.99999688
_symmetry_Int_Tables_number   1
_chemical_formula_structural   Si
_chemical_formula_sum   Si58
_cell_volume   1400.90611579
_cell_formula_units_Z   58
loop_
 _symmetry_equiv_pos_site_id
 _symmetry_equiv_pos_as_xyz
  1  'x, y, z'
loop_
 _atom_site_type_symbol
 _atom_site_label
 _atom_site_symmetry_multiplicity
 _atom_site_fract_x
 _atom_site_fract_y
 _atom_site_fract_z
 _atom_site_occupancy
  Si  Si0  1  0.62063100  0.61960300  0.20469300  1
  Si  Si1  1  0.99897200  0.37936900  0.20469300  1
  Si  Si2  1  0.38039700  0.00102800  0.20469300  1
  Si  Si3  1  0.62063100  0.00102800  0.20469300  1
  Si  Si4  1  0.38039700  0.37936900  0.20469300  1
  Si  Si5  1  0.99897200  0.61960300  0.20469300  1
  Si  Si6  1  0.37936900  0.38039700  0.79530700  1
  Si  Si7  1  0.00102800  0.62063100  0.79530700  1
  Si  Si8  1  0.61960300  0.99897200  0.79530700  1
  Si  Si9  1  0.37936900  0.99897200  0.79530700  1
  Si  Si10  1  0.61960300  0.62063100  0.79530700  1
  Si  Si11  1  0.00102800  0.38039700  0.79530700  1
  Si  Si12  1  0.75522600  0.99935100  0.32628300  1
  Si  Si13  1  0.24412500  0.24477400  0.32628300  1
  Si  Si14  1  0.00064900  0.75587500  0.32628300  1
  Si  Si15  1  0.75522600  0.75587500  0.32628300  1
  Si  Si16  1  0.00064900  0.24477400  0.32628300  1
  Si  Si17  1  0.24412500  0.99935100  0.32628300  1
  Si  Si18  1  0.24477400  0.00064900  0.67371700  1
  Si  Si19  1  0.75587500  0.75522600  0.67371700  1
  Si  Si20  1  0.99935100  0.24412500  0.67371700  1
  Si  Si21  1  0.24477400  0.24412500  0.67371700  1
  Si  Si22  1  0.99935100  0.75522600  0.67371700  1
  Si  Si23  1  0.75587500  0.00064900  0.67371700  1
  Si  Si24  1  0.57881700  0.66646600  0.44189000  1
  Si  Si25  1  0.08764900  0.42118300  0.44189000  1
  Si  Si26  1  0.33353400  0.91235100  0.44189000  1
  Si  Si27  1  0.57881700  0.91235100  0.44189000  1
  Si  Si28  1  0.33353400  0.42118300  0.44189000  1
  Si  Si29  1  0.08764900  0.66646600  0.44189000  1
  Si  Si30  1  0.42118300  0.33353400  0.55811000  1
  Si  Si31  1  0.91235100  0.57881700  0.55811000  1
  Si  Si32  1  0.66646600  0.08764900  0.55811000  1
  Si  Si33  1  0.42118300  0.08764900  0.55811000  1
  Si  Si34  1  0.66646600  0.57881700  0.55811000  1
  Si  Si35  1  0.91235100  0.33353400  0.55811000  1
  Si  Si36  1  0.73317400  0.86658700  0.00051700  1
  Si  Si37  1  0.13341300  0.26682600  0.00051700  1
  Si  Si38  1  0.13341300  0.86658700  0.00051700  1
  Si  Si39  1  0.26682600  0.13341300  0.99948300  1
  Si  Si40  1  0.86658700  0.73317400  0.99948300  1
  Si  Si41  1  0.86658700  0.13341300  0.99948300  1
  Si  Si42  1  0.58262200  0.79131100  0.87837700  1
  Si  Si43  1  0.20868900  0.41737800  0.87837700  1
  Si  Si44  1  0.20868900  0.79131100  0.87837700  1
  Si  Si45  1  0.41737800  0.20868900  0.12162300  1
  Si  Si46  1  0.79131100  0.58262200  0.12162300  1
  Si  Si47  1  0.79131100  0.20868900  0.12162300  1
  Si  Si48  1  0.58298100  0.79149100  0.12300500  1
  Si  Si49  1  0.20850900  0.41701900  0.12300500  1
  Si  Si50  1  0.20850900  0.79149100  0.12300500  1
  Si  Si51  1  0.41701900  0.20850900  0.87699500  1
  Si  Si52  1  0.79149100  0.58298100  0.87699500  1
  Si  Si53  1  0.79149100  0.20850900  0.87699500  1
  Si  Si54  1  0.33333300  0.66666700  0.07289500  1
  Si  Si55  1  0.66666700  0.33333300  0.92710500  1
  Si  Si56  1  0.33333300  0.66666700  0.92861900  1
  Si  Si57  1  0.66666700  0.33333300  0.07138100  1
# generated using pymatgen
data_Si
_symmetry_space_group_name_H-M   'P 1'
_cell_length_a   10.01843953
_cell_length_b   10.01843953
_cell_length_c   16.11677800
_cell_angle_alpha   90.00000000
_cell_angle_beta   90.00000000
_cell_angle_gamma   119.99999688
_symmetry_Int_Tables_number   1
_chemical_formula_structural   Si
_chemical_formula_sum   Si58
_cell_volume   1400.90611579
_cell_formula_units_Z   58
loop_
 _symmetry_equiv_pos_site_id
 _symmetry_equiv_pos_as_xyz
  1  'x, y, z'
loop_
 _atom_site_type_symbol
 _atom_site_label
 _atom_site_symmetry_multiplicity
 _atom_site_fract_x
 _atom_site_fract_y
 _atom_site_fract_z
 _atom_site_occupancy
  Si  Si0  1  0.62063100  0.61960300  0.20469300  1
  Si  Si1  1  0.99897200  0.37936900  0.20469300  1
  Si  Si2  1  0.38039700  0.00102800  0.20469300  1
  Si  Si3  1  0.62063100  0.00102800  0.20469300  1
  Si  Si4  1  0.38039700  0.37936900  0.20469300  1
  Si  Si5  1  0.99897200  0.61960300  0.20469300  1
  Si  Si6  1  0.37936900  0.38039700  0.79530700  1
  Si  Si7  1  0.00102800  0.62063100  0.79530700  1
  Si  Si8  1  0.61960300  0.99897200  0.79530700  1
  Si  Si9  1  0.37936900  0.99897200  0.79530700  1
  Si  Si10  1  0.61960300  0.62063100  0.79530700  1
  Si  Si11  1  0.00102800  0.38039700  0.79530700  1
  Si  Si12  1  0.75522600  0.99935100  0.32628300  1
  Si  Si13  1  0.24412500  0.24477400  0.32628300  1
  Si  Si14  1  0.00064900  0.75587500  0.32628300  1
  Si  Si15  1  0.75522600  0.75587500  0.32628300  1
  Si  Si16  1  0.00064900  0.24477400  0.32628300  1
  Si  Si17  1  0.24412500  0.99935100  0.32628300  1
  Si  Si18  1  0.24477400  0.00064900  0.67371700  1
  Si  Si19  1  0.75587500  0.75522600  0.67371700  1
  Si  Si20  1  0.99935100  0.24412500  0.67371700  1
  Si  Si21  1  0.24477400  0.24412500  0.67371700  1
  Si  Si22  1  0.99935100  0.75522600  0.67371700  1
  Si  Si23  1  0.75587500  0.00064900  0.67371700  1
  Si  Si24  1  0.57881700  0.66646600  0.44189000  1
  Si  Si25  1  0.08764900  0.42118300  0.44189000  1
  Si  Si26  1  0.33353400  0.91235100  0.44189000  1
  Si  Si27  1  0.57881700  0.91235100  0.44189000  1
  Si  Si28  1  0.33353400  0.42118300  0.44189000  1
  Si  Si29  1  0.08764900  0.66646600  0.44189000  1
  Si  Si30  1  0.42118300  0.33353400  0.55811000  1
  Si  Si31  1  0.91235100  0.57881700  0.55811000  1
  Si  Si32  1  0.66646600  0.08764900  0.55811000  1
  Si  Si33  1  0.42118300  0.08764900  0.55811000  1
  Si  Si34  1  0.66646600  0.57881700  0.55811000  1
  Si  Si35  1  0.91235100  0.33353400  0.55811000  1
  Si  Si36  1  0.73317400  0.86658700  0.00051700  1
  Si  Si37  1  0.13341300  0.26682600  0.00051700  1
  Si  Si38  1  0.13341300  0.86658700  0.00051700  1
  Si  Si39  1  0.26682600  0.13341300  0.99948300  1
  Si  Si40  1  0.86658700  0.73317400  0.99948300  1
  Si  Si41  1  0.86658700  0.13341300  0.99948300  1
  Si  Si42  1  0.58262200  0.79131100  0.87837700  1
  Si  Si43  1  0.20868900  0.41737800  0.87837700  1
  Si  Si44  1  0.20868900  0.79131100  0.87837700  1
  Si  Si45  1  0.41737800  0.20868900  0.12162300  1
  Si  Si46  1  0.79131100  0.58262200  0.12162300  1
  Si  Si47  1  0.79131100  0.20868900  0.12162300  1
  Si  Si48  1  0.58298100  0.79149100  0.12300500  1
  Si  Si49  1  0.20850900  0.41701900  0.12300500  1
  Si  Si50  1  0.20850900  0.79149100  0.12300500  1
  Si  Si51  1  0.41701900  0.20850900  0.87699500  1
  Si  Si52  1  0.79149100  0.58298100  0.87699500  1
  Si  Si53  1  0.79149100  0.20850900  0.87699500  1
  Si  Si54  1  0.33333300  0.66666700  0.07289500  1
  Si  Si55  1  0.66666700  0.33333300  0.92710500  1
  Si  Si56  1  0.33333300  0.66666700  0.92861900  1
  Si  Si57  1  0.66666700  0.33333300  0.07138100  1
# generated using pymatgen
data_Si
_symmetry_space_group_name_H-M   'P 1'
_cell_length_a   10.01843953
_cell_length_b   10.01843953
_cell_length_c   16.11677800
_cell_angle_alpha   90.00000000
_cell_angle_beta   90.00000000
_cell_angle_gamma   119.99999688
_symmetry_Int_Tables_number   1
_chemical_formula_structural   Si
_chemical_formula_sum   Si58
_cell_volume   1400.90611579
_cell_formula_units_Z   58
loop_
 _symmetry_equiv_pos_site_id
 _symmetry_equiv_pos_as_xyz
  1  'x, y, z'
loop_
 _atom_site_type_symbol
 _atom_site_label
 _atom_site_symmetry_multiplicity
 _atom_site_fract_x
 _atom_site_fract_y
 _atom_site_fract_z
 _atom_site_occupancy
  Si  Si0  1  0.62063100  0.61960300  0.20469300  1
  Si  Si1  1  0.99897200  0.37936900  0.20469300  1
  Si  Si2  1  0.38039700  0.00102800  0.20469300  1
  Si  Si3  1  0.62063100  0.00102800  0.20469300  1
  Si  Si4  1  0.38039700  0.37936900  0.20469300  1
  Si  Si5  1  0.99897200  0.61960300  0.20469300  1
  Si  Si6  1  0.37936900  0.38039700  0.79530700  1
  Si  Si7  1  0.00102800  0.62063100  0.79530700  1
  Si  Si8  1  0.61960300  0.99897200  0.79530700  1
  Si  Si9  1  0.37936900  0.99897200  0.79530700  1
  Si  Si10  1  0.61960300  0.62063100  0.79530700  1
  Si  Si11  1  0.00102800  0.38039700  0.79530700  1
  Si  Si12  1  0.75522600  0.99935100  0.32628300  1
  Si  Si13  1  0.24412500  0.24477400  0.32628300  1
  Si  Si14  1  0.00064900  0.75587500  0.32628300  1
  Si  Si15  1  0.75522600  0.75587500  0.32628300  1
  Si  Si16  1  0.00064900  0.24477400  0.32628300  1
  Si  Si17  1  0.24412500  0.99935100  0.32628300  1
  Si  Si18  1  0.24477400  0.00064900  0.67371700  1
  Si  Si19  1  0.75587500  0.75522600  0.67371700  1
  Si  Si20  1  0.99935100  0.24412500  0.67371700  1
  Si  Si21  1  0.24477400  0.24412500  0.67371700  1
  Si  Si22  1  0.99935100  0.75522600  0.67371700  1
  Si  Si23  1  0.75587500  0.00064900  0.67371700  1
  Si  Si24  1  0.57881700  0.66646600  0.44189000  1
  Si  Si25  1  0.08764900  0.42118300  0.44189000  1
  Si  Si26  1  0.33353400  0.91235100  0.44189000  1
  Si  Si27  1  0.57881700  0.91235100  0.44189000  1
  Si  Si28  1  0.33353400  0.42118300  0.44189000  1
  Si  Si29  1  0.08764900  0.66646600  0.44189000  1
  Si  Si30  1  0.42118300  0.33353400  0.55811000  1
  Si  Si31  1  0.91235100  0.57881700  0.55811000  1
  Si  Si32  1  0.66646600  0.08764900  0.55811000  1
  Si  Si33  1  0.42118300  0.08764900  0.55811000  1
  Si  Si34  1  0.66646600  0.57881700  0.55811000  1
  Si  Si35  1  0.91235100  0.33353400  0.55811000  1
  Si  Si36  1  0.73317400  0.86658700  0.00051700  1
  Si  Si37  1  0.13341300  0.26682600  0.00051700  1
  Si  Si38  1  0.13341300  0.86658700  0.00051700  1
  Si  Si39  1  0.26682600  0.13341300  0.99948300  1
  Si  Si40  1  0.86658700  0.73317400  0.99948300  1
  Si  Si41  1  0.86658700  0.13341300  0.99948300  1
  Si  Si42  1  0.58262200  0.79131100  0.87837700  1
  Si  Si43  1  0.20868900  0.41737800  0.87837700  1
  Si  Si44  1  0.20868900  0.79131100  0.87837700  1
  Si  Si45  1  0.41737800  0.20868900  0.12162300  1
  Si  Si46  1  0.79131100  0.58262200  0.12162300  1
  Si  Si47  1  0.79131100  0.20868900  0.12162300  1
  Si  Si48  1  0.58298100  0.79149100  0.12300500  1
  Si  Si49  1  0.20850900  0.41701900  0.12300500  1
  Si  Si50  1  0.20850900  0.79149100  0.12300500  1
  Si  Si51  1  0.41701900  0.20850900  0.87699500  1
  Si  Si52  1  0.79149100  0.58298100  0.87699500  1
  Si  Si53  1  0.79149100  0.20850900  0.87699500  1
  Si  Si54  1  0.33333300  0.66666700  0.07289500  1
  Si  Si55  1  0.66666700  0.33333300  0.92710500  1
  Si  Si56  1  0.33333300  0.66666700  0.92861900  1
  Si  Si57  1  0.66666700  0.33333300  0.07138100  1
# generated using pymatgen
data_Si
_symmetry_space_group_name_H-M   'P 1'
_cell_length_a   10.01843953
_cell_length_b   10.01843953
_cell_length_c   16.11677800
_cell_angle_alpha   90.00000000
_cell_angle_beta   90.00000000
_cell_angle_gamma   119.99999688
_symmetry_Int_Tables_number   1
_chemical_formula_structural   Si
_chemical_formula_sum   Si58
_cell_volume   1400.90611579
_cell_formula_units_Z   58
loop_
 _symmetry_equiv_pos_site_id
 _symmetry_equiv_pos_as_xyz
  1  'x, y, z'
loop_
 _atom_site_type_symbol
 _atom_site_label
 _atom_site_symmetry_multiplicity
 _atom_site_fract_x
 _atom_site_fract_y
 _atom_site_fract_z
 _atom_site_occupancy
  Si  Si0  1  0.62063100  0.61960300  0.20469300  1
  Si  Si1  1  0.99897200  0.37936900  0.20469300  1
  Si  Si2  1  0.38039700  0.00102800  0.20469300  1
  Si  Si3  1  0.62063100  0.00102800  0.20469300  1
  Si  Si4  1  0.38039700  0.37936900  0.20469300  1
  Si  Si5  1  0.99897200  0.61960300  0.20469300  1
  Si  Si6  1  0.37936900  0.38039700  0.79530700  1
  Si  Si7  1  0.00102800  0.62063100  0.79530700  1
  Si  Si8  1  0.61960300  0.99897200  0.79530700  1
  Si  Si9  1  0.37936900  0.99897200  0.79530700  1
  Si  Si10  1  0.61960300  0.62063100  0.79530700  1
  Si  Si11  1  0.00102800  0.38039700  0.79530700  1
  Si  Si12  1  0.75522600  0.99935100  0.32628300  1
  Si  Si13  1  0.24412500  0.24477400  0.32628300  1
  Si  Si14  1  0.00064900  0.75587500  0.32628300  1
  Si  Si15  1  0.75522600  0.75587500  0.32628300  1
  Si  Si16  1  0.00064900  0.24477400  0.32628300  1
  Si  Si17  1  0.24412500  0.99935100  0.32628300  1
  Si  Si18  1  0.24477400  0.00064900  0.67371700  1
  Si  Si19  1  0.75587500  0.75522600  0.67371700  1
  Si  Si20  1  0.99935100  0.24412500  0.67371700  1
  Si  Si21  1  0.24477400  0.24412500  0.67371700  1
  Si  Si22  1  0.99935100  0.75522600  0.67371700  1
  Si  Si23  1  0.75587500  0.00064900  0.67371700  1
  Si  Si24  1  0.57881700  0.66646600  0.44189000  1
  Si  Si25  1  0.08764900  0.42118300  0.44189000  1
  Si  Si26  1  0.33353400  0.91235100  0.44189000  1
  Si  Si27  1  0.57881700  0.91235100  0.44189000  1
  Si  Si28  1  0.33353400  0.42118300  0.44189000  1
  Si  Si29  1  0.08764900  0.66646600  0.44189000  1
  Si  Si30  1  0.42118300  0.33353400  0.55811000  1
  Si  Si31  1  0.91235100  0.57881700  0.55811000  1
  Si  Si32  1  0.66646600  0.08764900  0.55811000  1
  Si  Si33  1  0.42118300  0.08764900  0.55811000  1
  Si  Si34  1  0.66646600  0.57881700  0.55811000  1
  Si  Si35  1  0.91235100  0.33353400  0.55811000  1
  Si  Si36  1  0.73317400  0.86658700  0.00051700  1
  Si  Si37  1  0.13341300  0.26682600  0.00051700  1
  Si  Si38  1  0.13341300  0.86658700  0.00051700  1
  Si  Si39  1  0.26682600  0.13341300  0.99948300  1
  Si  Si40  1  0.86658700  0.73317400  0.99948300  1
  Si  Si41  1  0.86658700  0.13341300  0.99948300  1
  Si  Si42  1  0.58262200  0.79131100  0.87837700  1
  Si  Si43  1  0.20868900  0.41737800  0.87837700  1
  Si  Si44  1  0.20868900  0.79131100  0.87837700  1
  Si  Si45  1  0.41737800  0.20868900  0.12162300  1
  Si  Si46  1  0.79131100  0.58262200  0.12162300  1
  Si  Si47  1  0.79131100  0.20868900  0.12162300  1
  Si  Si48  1  0.58298100  0.79149100  0.12300500  1
  Si  Si49  1  0.20850900  0.41701900  0.12300500  1
  Si  Si50  1  0.20850900  0.79149100  0.12300500  1
  Si  Si51  1  0.41701900  0.20850900  0.87699500  1
  Si  Si52  1  0.79149100  0.58298100  0.87699500  1
  Si  Si53  1  0.79149100  0.20850900  0.87699500  1
  Si  Si54  1  0.33333300  0.66666700  0.07289500  1
  Si  Si55  1  0.66666700  0.33333300  0.92710500  1
  Si  Si56  1  0.33333300  0.66666700  0.92861900  1
  Si  Si57  1  0.66666700  0.33333300  0.07138100  1
# generated using pymatgen
data_Si
_symmetry_space_group_name_H-M   'P 1'
_cell_length_a   10.01843953
_cell_length_b   10.01843953
_cell_length_c   16.11677800
_cell_angle_alpha   90.00000000
_cell_angle_beta   90.00000000
_cell_angle_gamma   119.99999688
_symmetry_Int_Tables_number   1
_chemical_formula_structural   Si
_chemical_formula_sum   Si58
_cell_volume   1400.90611579
_cell_formula_units_Z   58
loop_
 _symmetry_equiv_pos_site_id
 _symmetry_equiv_pos_as_xyz
  1  'x, y, z'
loop_
 _atom_site_type_symbol
 _atom_site_label
 _atom_site_symmetry_multiplicity
 _atom_site_fract_x
 _atom_site_fract_y
 _atom_site_fract_z
 _atom_site_occupancy
  Si  Si0  1  0.62063100  0.61960300  0.20469300  1
  Si  Si1  1  0.99897200  0.37936900  0.20469300  1
  Si  Si2  1  0.38039700  0.00102800  0.20469300  1
  Si  Si3  1  0.62063100  0.00102800  0.20469300  1
  Si  Si4  1  0.38039700  0.37936900  0.20469300  1
  Si  Si5  1  0.99897200  0.61960300  0.20469300  1
  Si  Si6  1  0.37936900  0.38039700  0.79530700  1
  Si  Si7  1  0.00102800  0.62063100  0.79530700  1
  Si  Si8  1  0.61960300  0.99897200  0.79530700  1
  Si  Si9  1  0.37936900  0.99897200  0.79530700  1
  Si  Si10  1  0.61960300  0.62063100  0.79530700  1
  Si  Si11  1  0.00102800  0.38039700  0.79530700  1
  Si  Si12  1  0.75522600  0.99935100  0.32628300  1
  Si  Si13  1  0.24412500  0.24477400  0.32628300  1
  Si  Si14  1  0.00064900  0.75587500  0.32628300  1
  Si  Si15  1  0.75522600  0.75587500  0.32628300  1
  Si  Si16  1  0.00064900  0.24477400  0.32628300  1
  Si  Si17  1  0.24412500  0.99935100  0.32628300  1
  Si  Si18  1  0.24477400  0.00064900  0.67371700  1
  Si  Si19  1  0.75587500  0.75522600  0.67371700  1
  Si  Si20  1  0.99935100  0.24412500  0.67371700  1
  Si  Si21  1  0.24477400  0.24412500  0.67371700  1
  Si  Si22  1  0.99935100  0.75522600  0.67371700  1
  Si  Si23  1  0.75587500  0.00064900  0.67371700  1
  Si  Si24  1  0.57881700  0.66646600  0.44189000  1
  Si  Si25  1  0.08764900  0.42118300  0.44189000  1
  Si  Si26  1  0.33353400  0.91235100  0.44189000  1
  Si  Si27  1  0.57881700  0.91235100  0.44189000  1
  Si  Si28  1  0.33353400  0.42118300  0.44189000  1
  Si  Si29  1  0.08764900  0.66646600  0.44189000  1
  Si  Si30  1  0.42118300  0.33353400  0.55811000  1
  Si  Si31  1  0.91235100  0.57881700  0.55811000  1
  Si  Si32  1  0.66646600  0.08764900  0.55811000  1
  Si  Si33  1  0.42118300  0.08764900  0.55811000  1
  Si  Si34  1  0.66646600  0.57881700  0.55811000  1
  Si  Si35  1  0.91235100  0.33353400  0.55811000  1
  Si  Si36  1  0.73317400  0.86658700  0.00051700  1
  Si  Si37  1  0.13341300  0.26682600  0.00051700  1
  Si  Si38  1  0.13341300  0.86658700  0.00051700  1
  Si  Si39  1  0.26682600  0.13341300  0.99948300  1
  Si  Si40  1  0.86658700  0.73317400  0.99948300  1
  Si  Si41  1  0.86658700  0.13341300  0.99948300  1
  Si  Si42  1  0.58262200  0.79131100  0.87837700  1
  Si  Si43  1  0.20868900  0.41737800  0.87837700  1
  Si  Si44  1  0.20868900  0.79131100  0.87837700  1
  Si  Si45  1  0.41737800  0.20868900  0.12162300  1
  Si  Si46  1  0.79131100  0.58262200  0.12162300  1
  Si  Si47  1  0.79131100  0.20868900  0.12162300  1
  Si  Si48  1  0.58298100  0.79149100  0.12300500  1
  Si  Si49  1  0.20850900  0.41701900  0.12300500  1
  Si  Si50  1  0.20850900  0.79149100  0.12300500  1
  Si  Si51  1  0.41701900  0.20850900  0.87699500  1
  Si  Si52  1  0.79149100  0.58298100  0.87699500  1
  Si  Si53  1  0.79149100  0.20850900  0.87699500  1
  Si  Si54  1  0.33333300  0.66666700  0.07289500  1
  Si  Si55  1  0.66666700  0.33333300  0.92710500  1
  Si  Si56  1  0.33333300  0.66666700  0.92861900  1
  Si  Si57  1  0.66666700  0.33333300  0.07138100  1
# generated using pymatgen
data_Si
_symmetry_space_group_name_H-M   'P 1'
_cell_length_a   10.01843953
_cell_length_b   10.01843953
_cell_length_c   16.11677800
_cell_angle_alpha   90.00000000
_cell_angle_beta   90.00000000
_cell_angle_gamma   119.99999688
_symmetry_Int_Tables_number   1
_chemical_formula_structural   Si
_chemical_formula_sum   Si58
_cell_volume   1400.90611579
_cell_formula_units_Z   58
loop_
 _symmetry_equiv_pos_site_id
 _symmetry_equiv_pos_as_xyz
  1  'x, y, z'
loop_
 _atom_site_type_symbol
 _atom_site_label
 _atom_site_symmetry_multiplicity
 _atom_site_fract_x
 _atom_site_fract_y
 _atom_site_fract_z
 _atom_site_occupancy
  Si  Si0  1  0.62063100  0.61960300  0.20469300  1
  Si  Si1  1  0.99897200  0.37936900  0.20469300  1
  Si  Si2  1  0.38039700  0.00102800  0.20469300  1
  Si  Si3  1  0.62063100  0.00102800  0.20469300  1
  Si  Si4  1  0.38039700  0.37936900  0.20469300  1
  Si  Si5  1  0.99897200  0.61960300  0.20469300  1
  Si  Si6  1  0.37936900  0.38039700  0.79530700  1
  Si  Si7  1  0.00102800  0.62063100  0.79530700  1
  Si  Si8  1  0.61960300  0.99897200  0.79530700  1
  Si  Si9  1  0.37936900  0.99897200  0.79530700  1
  Si  Si10  1  0.61960300  0.62063100  0.79530700  1
  Si  Si11  1  0.00102800  0.38039700  0.79530700  1
  Si  Si12  1  0.75522600  0.99935100  0.32628300  1
  Si  Si13  1  0.24412500  0.24477400  0.32628300  1
  Si  Si14  1  0.00064900  0.75587500  0.32628300  1
  Si  Si15  1  0.75522600  0.75587500  0.32628300  1
  Si  Si16  1  0.00064900  0.24477400  0.32628300  1
  Si  Si17  1  0.24412500  0.99935100  0.32628300  1
  Si  Si18  1  0.24477400  0.00064900  0.67371700  1
  Si  Si19  1  0.75587500  0.75522600  0.67371700  1
  Si  Si20  1  0.99935100  0.24412500  0.67371700  1
  Si  Si21  1  0.24477400  0.24412500  0.67371700  1
  Si  Si22  1  0.99935100  0.75522600  0.67371700  1
  Si  Si23  1  0.75587500  0.00064900  0.67371700  1
  Si  Si24  1  0.57881700  0.66646600  0.44189000  1
  Si  Si25  1  0.08764900  0.42118300  0.44189000  1
  Si  Si26  1  0.33353400  0.91235100  0.44189000  1
  Si  Si27  1  0.57881700  0.91235100  0.44189000  1
  Si  Si28  1  0.33353400  0.42118300  0.44189000  1
  Si  Si29  1  0.08764900  0.66646600  0.44189000  1
  Si  Si30  1  0.42118300  0.33353400  0.55811000  1
  Si  Si31  1  0.91235100  0.57881700  0.55811000  1
  Si  Si32  1  0.66646600  0.08764900  0.55811000  1
  Si  Si33  1  0.42118300  0.08764900  0.55811000  1
  Si  Si34  1  0.66646600  0.57881700  0.55811000  1
  Si  Si35  1  0.91235100  0.33353400  0.55811000  1
  Si  Si36  1  0.73317400  0.86658700  0.00051700  1
  Si  Si37  1  0.13341300  0.26682600  0.00051700  1
  Si  Si38  1  0.13341300  0.86658700  0.00051700  1
  Si  Si39  1  0.26682600  0.13341300  0.99948300  1
  Si  Si40  1  0.86658700  0.73317400  0.99948300  1
  Si  Si41  1  0.86658700  0.13341300  0.99948300  1
  Si  Si42  1  0.58262200  0.79131100  0.87837700  1
  Si  Si43  1  0.20868900  0.41737800  0.87837700  1
  Si  Si44  1  0.20868900  0.79131100  0.87837700  1
  Si  Si45  1  0.41737800  0.20868900  0.12162300  1
  Si  Si46  1  0.79131100  0.58262200  0.12162300  1
  Si  Si47  1  0.79131100  0.20868900  0.12162300  1
  Si  Si48  1  0.58298100  0.79149100  0.12300500  1
  Si  Si49  1  0.20850900  0.41701900  0.12300500  1
  Si  Si50  1  0.20850900  0.79149100  0.12300500  1
  Si  Si51  1  0.41701900  0.20850900  0.87699500  1
  Si  Si52  1  0.79149100  0.58298100  0.87699500  1
  Si  Si53  1  0.79149100  0.20850900  0.87699500  1
  Si  Si54  1  0.33333300  0.66666700  0.07289500  1
  Si  Si55  1  0.66666700  0.33333300  0.92710500  1
  Si  Si56  1  0.33333300  0.66666700  0.92861900  1
  Si  Si57  1  0.66666700  0.33333300  0.07138100  1
