# generated using pymatgen
data_Si
_symmetry_space_group_name_H-M   'P 1'
_cell_length_a   7.04387786
_cell_length_b   7.04387786
_cell_length_c   7.04387819
_cell_angle_alpha   21.98473458
_cell_angle_beta   21.98473458
_cell_angle_gamma   21.98473242
_symmetry_Int_Tables_number   1
_chemical_formula_structural   Si
_chemical_formula_sum   Si3
_cell_volume   42.93760159
_cell_formula_units_Z   3
loop_
 _symmetry_equiv_pos_site_id
 _symmetry_equiv_pos_as_xyz
  1  'x, y, z'
loop_
 _atom_site_type_symbol
 _atom_site_label
 _atom_site_symmetry_multiplicity
 _atom_site_fract_x
 _atom_site_fract_y
 _atom_site_fract_z
 _atom_site_occupancy
  Si  Si0  1  0.00000000  0.00000000  0.00000000  1
  Si  Si1  1  0.22240400  0.22240400  0.22240400  1
  Si  Si2  1  0.77759600  0.77759600  0.77759600  1
# generated using pymatgen
data_Si
_symmetry_space_group_name_H-M   'P 1'
_cell_length_a   7.04387786
_cell_length_b   7.04387786
_cell_length_c   7.04387819
_cell_angle_alpha   21.98473458
_cell_angle_beta   21.98473458
_cell_angle_gamma   21.98473242
_symmetry_Int_Tables_number   1
_chemical_formula_structural   Si
_chemical_formula_sum   Si3
_cell_volume   42.93760159
_cell_formula_units_Z   3
loop_
 _symmetry_equiv_pos_site_id
 _symmetry_equiv_pos_as_xyz
  1  'x, y, z'
loop_
 _atom_site_type_symbol
 _atom_site_label
 _atom_site_symmetry_multiplicity
 _atom_site_fract_x
 _atom_site_fract_y
 _atom_site_fract_z
 _atom_site_occupancy
  Si  Si0  1  0.00000000  0.00000000  0.00000000  1
  Si  Si1  1  0.22240400  0.22240400  0.22240400  1
  Si  Si2  1  0.77759600  0.77759600  0.77759600  1
# generated using pymatgen
data_Si
_symmetry_space_group_name_H-M   'P 1'
_cell_length_a   7.04387786
_cell_length_b   7.04387786
_cell_length_c   7.04387819
_cell_angle_alpha   21.98473458
_cell_angle_beta   21.98473458
_cell_angle_gamma   21.98473242
_symmetry_Int_Tables_number   1
_chemical_formula_structural   Si
_chemical_formula_sum   Si3
_cell_volume   42.93760159
_cell_formula_units_Z   3
loop_
 _symmetry_equiv_pos_site_id
 _symmetry_equiv_pos_as_xyz
  1  'x, y, z'
loop_
 _atom_site_type_symbol
 _atom_site_label
 _atom_site_symmetry_multiplicity
 _atom_site_fract_x
 _atom_site_fract_y
 _atom_site_fract_z
 _atom_site_occupancy
  Si  Si0  1  0.00000000  0.00000000  0.00000000  1
  Si  Si1  1  0.22240400  0.22240400  0.22240400  1
  Si  Si2  1  0.77759600  0.77759600  0.77759600  1
# generated using pymatgen
data_Si
_symmetry_space_group_name_H-M   'P 1'
_cell_length_a   7.04387786
_cell_length_b   7.04387786
_cell_length_c   7.04387819
_cell_angle_alpha   21.98473458
_cell_angle_beta   21.98473458
_cell_angle_gamma   21.98473242
_symmetry_Int_Tables_number   1
_chemical_formula_structural   Si
_chemical_formula_sum   Si3
_cell_volume   42.93760159
_cell_formula_units_Z   3
loop_
 _symmetry_equiv_pos_site_id
 _symmetry_equiv_pos_as_xyz
  1  'x, y, z'
loop_
 _atom_site_type_symbol
 _atom_site_label
 _atom_site_symmetry_multiplicity
 _atom_site_fract_x
 _atom_site_fract_y
 _atom_site_fract_z
 _atom_site_occupancy
  Si  Si0  1  0.00000000  0.00000000  0.00000000  1
  Si  Si1  1  0.22240400  0.22240400  0.22240400  1
  Si  Si2  1  0.77759600  0.77759600  0.77759600  1
# generated using pymatgen
data_Si
_symmetry_space_group_name_H-M   'P 1'
_cell_length_a   7.04387786
_cell_length_b   7.04387786
_cell_length_c   7.04387819
_cell_angle_alpha   21.98473458
_cell_angle_beta   21.98473458
_cell_angle_gamma   21.98473242
_symmetry_Int_Tables_number   1
_chemical_formula_structural   Si
_chemical_formula_sum   Si3
_cell_volume   42.93760159
_cell_formula_units_Z   3
loop_
 _symmetry_equiv_pos_site_id
 _symmetry_equiv_pos_as_xyz
  1  'x, y, z'
loop_
 _atom_site_type_symbol
 _atom_site_label
 _atom_site_symmetry_multiplicity
 _atom_site_fract_x
 _atom_site_fract_y
 _atom_site_fract_z
 _atom_site_occupancy
  Si  Si0  1  0.00000000  0.00000000  0.00000000  1
  Si  Si1  1  0.22240400  0.22240400  0.22240400  1
  Si  Si2  1  0.77759600  0.77759600  0.77759600  1
# generated using pymatgen
data_Si
_symmetry_space_group_name_H-M   'P 1'
_cell_length_a   7.04387786
_cell_length_b   7.04387786
_cell_length_c   7.04387819
_cell_angle_alpha   21.98473458
_cell_angle_beta   21.98473458
_cell_angle_gamma   21.98473242
_symmetry_Int_Tables_number   1
_chemical_formula_structural   Si
_chemical_formula_sum   Si3
_cell_volume   42.93760159
_cell_formula_units_Z   3
loop_
 _symmetry_equiv_pos_site_id
 _symmetry_equiv_pos_as_xyz
  1  'x, y, z'
loop_
 _atom_site_type_symbol
 _atom_site_label
 _atom_site_symmetry_multiplicity
 _atom_site_fract_x
 _atom_site_fract_y
 _atom_site_fract_z
 _atom_site_occupancy
  Si  Si0  1  0.00000000  0.00000000  0.00000000  1
  Si  Si1  1  0.22240400  0.22240400  0.22240400  1
  Si  Si2  1  0.77759600  0.77759600  0.77759600  1
