# generated using pymatgen
data_Cd3Se
_symmetry_space_group_name_H-M   'P 1'
_cell_length_a   6.73672927
_cell_length_b   6.73672927
_cell_length_c   6.73672927
_cell_angle_alpha   144.72916672
_cell_angle_beta   144.72916672
_cell_angle_gamma   50.73831165
_symmetry_Int_Tables_number   1
_chemical_formula_structural   Cd3Se
_chemical_formula_sum   'Cd3 Se1'
_cell_volume   101.42266274
_cell_formula_units_Z   1
loop_
 _symmetry_equiv_pos_site_id
 _symmetry_equiv_pos_as_xyz
  1  'x, y, z'
loop_
 _atom_site_type_symbol
 _atom_site_label
 _atom_site_symmetry_multiplicity
 _atom_site_fract_x
 _atom_site_fract_y
 _atom_site_fract_z
 _atom_site_occupancy
  Cd  Cd0  1  0.75000000  0.25000000  0.50000000  1
  Cd  Cd1  1  0.25000000  0.75000000  0.50000000  1
  Cd  Cd2  1  0.50000000  0.50000000  0.00000000  1
  Se  Se3  1  0.00000000  0.00000000  0.00000000  1
# generated using pymatgen
data_Cd3Se
_symmetry_space_group_name_H-M   'P 1'
_cell_length_a   6.73672927
_cell_length_b   6.73672927
_cell_length_c   6.73672927
_cell_angle_alpha   144.72916672
_cell_angle_beta   144.72916672
_cell_angle_gamma   50.73831165
_symmetry_Int_Tables_number   1
_chemical_formula_structural   Cd3Se
_chemical_formula_sum   'Cd3 Se1'
_cell_volume   101.42266274
_cell_formula_units_Z   1
loop_
 _symmetry_equiv_pos_site_id
 _symmetry_equiv_pos_as_xyz
  1  'x, y, z'
loop_
 _atom_site_type_symbol
 _atom_site_label
 _atom_site_symmetry_multiplicity
 _atom_site_fract_x
 _atom_site_fract_y
 _atom_site_fract_z
 _atom_site_occupancy
  Cd  Cd0  1  0.75000000  0.25000000  0.50000000  1
  Cd  Cd1  1  0.25000000  0.75000000  0.50000000  1
  Cd  Cd2  1  0.50000000  0.50000000  0.00000000  1
  Se  Se3  1  0.00000000  0.00000000  0.00000000  1
# generated using pymatgen
data_Cd3Se
_symmetry_space_group_name_H-M   'P 1'
_cell_length_a   6.73672927
_cell_length_b   6.73672927
_cell_length_c   6.73672927
_cell_angle_alpha   144.72916672
_cell_angle_beta   144.72916672
_cell_angle_gamma   50.73831165
_symmetry_Int_Tables_number   1
_chemical_formula_structural   Cd3Se
_chemical_formula_sum   'Cd3 Se1'
_cell_volume   101.42266274
_cell_formula_units_Z   1
loop_
 _symmetry_equiv_pos_site_id
 _symmetry_equiv_pos_as_xyz
  1  'x, y, z'
loop_
 _atom_site_type_symbol
 _atom_site_label
 _atom_site_symmetry_multiplicity
 _atom_site_fract_x
 _atom_site_fract_y
 _atom_site_fract_z
 _atom_site_occupancy
  Cd  Cd0  1  0.75000000  0.25000000  0.50000000  1
  Cd  Cd1  1  0.25000000  0.75000000  0.50000000  1
  Cd  Cd2  1  0.50000000  0.50000000  0.00000000  1
  Se  Se3  1  0.00000000  0.00000000  0.00000000  1
# generated using pymatgen
data_Cd3Se
_symmetry_space_group_name_H-M   'P 1'
_cell_length_a   6.73672927
_cell_length_b   6.73672927
_cell_length_c   6.73672927
_cell_angle_alpha   144.72916672
_cell_angle_beta   144.72916672
_cell_angle_gamma   50.73831165
_symmetry_Int_Tables_number   1
_chemical_formula_structural   Cd3Se
_chemical_formula_sum   'Cd3 Se1'
_cell_volume   101.42266274
_cell_formula_units_Z   1
loop_
 _symmetry_equiv_pos_site_id
 _symmetry_equiv_pos_as_xyz
  1  'x, y, z'
loop_
 _atom_site_type_symbol
 _atom_site_label
 _atom_site_symmetry_multiplicity
 _atom_site_fract_x
 _atom_site_fract_y
 _atom_site_fract_z
 _atom_site_occupancy
  Cd  Cd0  1  0.75000000  0.25000000  0.50000000  1
  Cd  Cd1  1  0.25000000  0.75000000  0.50000000  1
  Cd  Cd2  1  0.50000000  0.50000000  0.00000000  1
  Se  Se3  1  0.00000000  0.00000000  0.00000000  1
# generated using pymatgen
data_Cd3Se
_symmetry_space_group_name_H-M   'P 1'
_cell_length_a   6.73672927
_cell_length_b   6.73672927
_cell_length_c   6.73672927
_cell_angle_alpha   144.72916672
_cell_angle_beta   144.72916672
_cell_angle_gamma   50.73831165
_symmetry_Int_Tables_number   1
_chemical_formula_structural   Cd3Se
_chemical_formula_sum   'Cd3 Se1'
_cell_volume   101.42266274
_cell_formula_units_Z   1
loop_
 _symmetry_equiv_pos_site_id
 _symmetry_equiv_pos_as_xyz
  1  'x, y, z'
loop_
 _atom_site_type_symbol
 _atom_site_label
 _atom_site_symmetry_multiplicity
 _atom_site_fract_x
 _atom_site_fract_y
 _atom_site_fract_z
 _atom_site_occupancy
  Cd  Cd0  1  0.75000000  0.25000000  0.50000000  1
  Cd  Cd1  1  0.25000000  0.75000000  0.50000000  1
  Cd  Cd2  1  0.50000000  0.50000000  0.00000000  1
  Se  Se3  1  0.00000000  0.00000000  0.00000000  1
