# generated using pymatgen
data_Ge
_symmetry_space_group_name_H-M   'P 1'
_cell_length_a   4.08071624
_cell_length_b   4.08071624
_cell_length_c   13.24792600
_cell_angle_alpha   90.00000000
_cell_angle_beta   90.00000000
_cell_angle_gamma   120.00000391
_symmetry_Int_Tables_number   1
_chemical_formula_structural   Ge
_chemical_formula_sum   Ge8
_cell_volume   191.05187363
_cell_formula_units_Z   8
loop_
 _symmetry_equiv_pos_site_id
 _symmetry_equiv_pos_as_xyz
  1  'x, y, z'
loop_
 _atom_site_type_symbol
 _atom_site_label
 _atom_site_symmetry_multiplicity
 _atom_site_fract_x
 _atom_site_fract_y
 _atom_site_fract_z
 _atom_site_occupancy
  Ge  Ge0  1  0.00000000  0.00000000  0.40676300  1
  Ge  Ge1  1  0.00000000  0.00000000  0.59323700  1
  Ge  Ge2  1  0.00000000  0.00000000  0.90676300  1
  Ge  Ge3  1  0.00000000  0.00000000  0.09323700  1
  Ge  Ge4  1  0.33333300  0.66666700  0.34429000  1
  Ge  Ge5  1  0.66666700  0.33333300  0.65571000  1
  Ge  Ge6  1  0.66666700  0.33333300  0.84429000  1
  Ge  Ge7  1  0.33333300  0.66666700  0.15571000  1
# generated using pymatgen
data_Ge
_symmetry_space_group_name_H-M   'P 1'
_cell_length_a   4.08071624
_cell_length_b   4.08071624
_cell_length_c   13.24792600
_cell_angle_alpha   90.00000000
_cell_angle_beta   90.00000000
_cell_angle_gamma   120.00000391
_symmetry_Int_Tables_number   1
_chemical_formula_structural   Ge
_chemical_formula_sum   Ge8
_cell_volume   191.05187363
_cell_formula_units_Z   8
loop_
 _symmetry_equiv_pos_site_id
 _symmetry_equiv_pos_as_xyz
  1  'x, y, z'
loop_
 _atom_site_type_symbol
 _atom_site_label
 _atom_site_symmetry_multiplicity
 _atom_site_fract_x
 _atom_site_fract_y
 _atom_site_fract_z
 _atom_site_occupancy
  Ge  Ge0  1  0.00000000  0.00000000  0.40676300  1
  Ge  Ge1  1  0.00000000  0.00000000  0.59323700  1
  Ge  Ge2  1  0.00000000  0.00000000  0.90676300  1
  Ge  Ge3  1  0.00000000  0.00000000  0.09323700  1
  Ge  Ge4  1  0.33333300  0.66666700  0.34429000  1
  Ge  Ge5  1  0.66666700  0.33333300  0.65571000  1
  Ge  Ge6  1  0.66666700  0.33333300  0.84429000  1
  Ge  Ge7  1  0.33333300  0.66666700  0.15571000  1
# generated using pymatgen
data_Ge
_symmetry_space_group_name_H-M   'P 1'
_cell_length_a   4.08071624
_cell_length_b   4.08071624
_cell_length_c   13.24792600
_cell_angle_alpha   90.00000000
_cell_angle_beta   90.00000000
_cell_angle_gamma   120.00000391
_symmetry_Int_Tables_number   1
_chemical_formula_structural   Ge
_chemical_formula_sum   Ge8
_cell_volume   191.05187363
_cell_formula_units_Z   8
loop_
 _symmetry_equiv_pos_site_id
 _symmetry_equiv_pos_as_xyz
  1  'x, y, z'
loop_
 _atom_site_type_symbol
 _atom_site_label
 _atom_site_symmetry_multiplicity
 _atom_site_fract_x
 _atom_site_fract_y
 _atom_site_fract_z
 _atom_site_occupancy
  Ge  Ge0  1  0.00000000  0.00000000  0.40676300  1
  Ge  Ge1  1  0.00000000  0.00000000  0.59323700  1
  Ge  Ge2  1  0.00000000  0.00000000  0.90676300  1
  Ge  Ge3  1  0.00000000  0.00000000  0.09323700  1
  Ge  Ge4  1  0.33333300  0.66666700  0.34429000  1
  Ge  Ge5  1  0.66666700  0.33333300  0.65571000  1
  Ge  Ge6  1  0.66666700  0.33333300  0.84429000  1
  Ge  Ge7  1  0.33333300  0.66666700  0.15571000  1
# generated using pymatgen
data_Ge
_symmetry_space_group_name_H-M   'P 1'
_cell_length_a   4.08071624
_cell_length_b   4.08071624
_cell_length_c   13.24792600
_cell_angle_alpha   90.00000000
_cell_angle_beta   90.00000000
_cell_angle_gamma   120.00000391
_symmetry_Int_Tables_number   1
_chemical_formula_structural   Ge
_chemical_formula_sum   Ge8
_cell_volume   191.05187363
_cell_formula_units_Z   8
loop_
 _symmetry_equiv_pos_site_id
 _symmetry_equiv_pos_as_xyz
  1  'x, y, z'
loop_
 _atom_site_type_symbol
 _atom_site_label
 _atom_site_symmetry_multiplicity
 _atom_site_fract_x
 _atom_site_fract_y
 _atom_site_fract_z
 _atom_site_occupancy
  Ge  Ge0  1  0.00000000  0.00000000  0.40676300  1
  Ge  Ge1  1  0.00000000  0.00000000  0.59323700  1
  Ge  Ge2  1  0.00000000  0.00000000  0.90676300  1
  Ge  Ge3  1  0.00000000  0.00000000  0.09323700  1
  Ge  Ge4  1  0.33333300  0.66666700  0.34429000  1
  Ge  Ge5  1  0.66666700  0.33333300  0.65571000  1
  Ge  Ge6  1  0.66666700  0.33333300  0.84429000  1
  Ge  Ge7  1  0.33333300  0.66666700  0.15571000  1
# generated using pymatgen
data_Ge
_symmetry_space_group_name_H-M   'P 1'
_cell_length_a   4.08071624
_cell_length_b   4.08071624
_cell_length_c   13.24792600
_cell_angle_alpha   90.00000000
_cell_angle_beta   90.00000000
_cell_angle_gamma   120.00000391
_symmetry_Int_Tables_number   1
_chemical_formula_structural   Ge
_chemical_formula_sum   Ge8
_cell_volume   191.05187363
_cell_formula_units_Z   8
loop_
 _symmetry_equiv_pos_site_id
 _symmetry_equiv_pos_as_xyz
  1  'x, y, z'
loop_
 _atom_site_type_symbol
 _atom_site_label
 _atom_site_symmetry_multiplicity
 _atom_site_fract_x
 _atom_site_fract_y
 _atom_site_fract_z
 _atom_site_occupancy
  Ge  Ge0  1  0.00000000  0.00000000  0.40676300  1
  Ge  Ge1  1  0.00000000  0.00000000  0.59323700  1
  Ge  Ge2  1  0.00000000  0.00000000  0.90676300  1
  Ge  Ge3  1  0.00000000  0.00000000  0.09323700  1
  Ge  Ge4  1  0.33333300  0.66666700  0.34429000  1
  Ge  Ge5  1  0.66666700  0.33333300  0.65571000  1
  Ge  Ge6  1  0.66666700  0.33333300  0.84429000  1
  Ge  Ge7  1  0.33333300  0.66666700  0.15571000  1
# generated using pymatgen
data_Ge
_symmetry_space_group_name_H-M   'P 1'
_cell_length_a   4.08071624
_cell_length_b   4.08071624
_cell_length_c   13.24792600
_cell_angle_alpha   90.00000000
_cell_angle_beta   90.00000000
_cell_angle_gamma   120.00000391
_symmetry_Int_Tables_number   1
_chemical_formula_structural   Ge
_chemical_formula_sum   Ge8
_cell_volume   191.05187363
_cell_formula_units_Z   8
loop_
 _symmetry_equiv_pos_site_id
 _symmetry_equiv_pos_as_xyz
  1  'x, y, z'
loop_
 _atom_site_type_symbol
 _atom_site_label
 _atom_site_symmetry_multiplicity
 _atom_site_fract_x
 _atom_site_fract_y
 _atom_site_fract_z
 _atom_site_occupancy
  Ge  Ge0  1  0.00000000  0.00000000  0.40676300  1
  Ge  Ge1  1  0.00000000  0.00000000  0.59323700  1
  Ge  Ge2  1  0.00000000  0.00000000  0.90676300  1
  Ge  Ge3  1  0.00000000  0.00000000  0.09323700  1
  Ge  Ge4  1  0.33333300  0.66666700  0.34429000  1
  Ge  Ge5  1  0.66666700  0.33333300  0.65571000  1
  Ge  Ge6  1  0.66666700  0.33333300  0.84429000  1
  Ge  Ge7  1  0.33333300  0.66666700  0.15571000  1
