# generated using pymatgen
data_Si
_symmetry_space_group_name_H-M   'P 1'
_cell_length_a   5.71140266
_cell_length_b   5.71140266
_cell_length_c   12.72749600
_cell_angle_alpha   90.00000000
_cell_angle_beta   90.00000000
_cell_angle_gamma   140.56606592
_symmetry_Int_Tables_number   1
_chemical_formula_structural   Si
_chemical_formula_sum   Si12
_cell_volume   263.71258455
_cell_formula_units_Z   12
loop_
 _symmetry_equiv_pos_site_id
 _symmetry_equiv_pos_as_xyz
  1  'x, y, z'
loop_
 _atom_site_type_symbol
 _atom_site_label
 _atom_site_symmetry_multiplicity
 _atom_site_fract_x
 _atom_site_fract_y
 _atom_site_fract_z
 _atom_site_occupancy
  Si  Si0  1  0.75727300  0.24272700  0.94529600  1
  Si  Si1  1  0.24272700  0.75727300  0.05470400  1
  Si  Si2  1  0.75727300  0.24272700  0.55470400  1
  Si  Si3  1  0.24272700  0.75727300  0.44529600  1
  Si  Si4  1  0.42876300  0.57123700  0.15702700  1
  Si  Si5  1  0.57123700  0.42876300  0.84297300  1
  Si  Si6  1  0.42876300  0.57123700  0.34297300  1
  Si  Si7  1  0.57123700  0.42876300  0.65702700  1
  Si  Si8  1  0.97134100  0.02865900  0.90946300  1
  Si  Si9  1  0.02865900  0.97134100  0.09053700  1
  Si  Si10  1  0.97134100  0.02865900  0.59053700  1
  Si  Si11  1  0.02865900  0.97134100  0.40946300  1
# generated using pymatgen
data_Si
_symmetry_space_group_name_H-M   'P 1'
_cell_length_a   5.71140266
_cell_length_b   5.71140266
_cell_length_c   12.72749600
_cell_angle_alpha   90.00000000
_cell_angle_beta   90.00000000
_cell_angle_gamma   140.56606592
_symmetry_Int_Tables_number   1
_chemical_formula_structural   Si
_chemical_formula_sum   Si12
_cell_volume   263.71258455
_cell_formula_units_Z   12
loop_
 _symmetry_equiv_pos_site_id
 _symmetry_equiv_pos_as_xyz
  1  'x, y, z'
loop_
 _atom_site_type_symbol
 _atom_site_label
 _atom_site_symmetry_multiplicity
 _atom_site_fract_x
 _atom_site_fract_y
 _atom_site_fract_z
 _atom_site_occupancy
  Si  Si0  1  0.75727300  0.24272700  0.94529600  1
  Si  Si1  1  0.24272700  0.75727300  0.05470400  1
  Si  Si2  1  0.75727300  0.24272700  0.55470400  1
  Si  Si3  1  0.24272700  0.75727300  0.44529600  1
  Si  Si4  1  0.42876300  0.57123700  0.15702700  1
  Si  Si5  1  0.57123700  0.42876300  0.84297300  1
  Si  Si6  1  0.42876300  0.57123700  0.34297300  1
  Si  Si7  1  0.57123700  0.42876300  0.65702700  1
  Si  Si8  1  0.97134100  0.02865900  0.90946300  1
  Si  Si9  1  0.02865900  0.97134100  0.09053700  1
  Si  Si10  1  0.97134100  0.02865900  0.59053700  1
  Si  Si11  1  0.02865900  0.97134100  0.40946300  1
# generated using pymatgen
data_Si
_symmetry_space_group_name_H-M   'P 1'
_cell_length_a   5.71140266
_cell_length_b   5.71140266
_cell_length_c   12.72749600
_cell_angle_alpha   90.00000000
_cell_angle_beta   90.00000000
_cell_angle_gamma   140.56606592
_symmetry_Int_Tables_number   1
_chemical_formula_structural   Si
_chemical_formula_sum   Si12
_cell_volume   263.71258455
_cell_formula_units_Z   12
loop_
 _symmetry_equiv_pos_site_id
 _symmetry_equiv_pos_as_xyz
  1  'x, y, z'
loop_
 _atom_site_type_symbol
 _atom_site_label
 _atom_site_symmetry_multiplicity
 _atom_site_fract_x
 _atom_site_fract_y
 _atom_site_fract_z
 _atom_site_occupancy
  Si  Si0  1  0.75727300  0.24272700  0.94529600  1
  Si  Si1  1  0.24272700  0.75727300  0.05470400  1
  Si  Si2  1  0.75727300  0.24272700  0.55470400  1
  Si  Si3  1  0.24272700  0.75727300  0.44529600  1
  Si  Si4  1  0.42876300  0.57123700  0.15702700  1
  Si  Si5  1  0.57123700  0.42876300  0.84297300  1
  Si  Si6  1  0.42876300  0.57123700  0.34297300  1
  Si  Si7  1  0.57123700  0.42876300  0.65702700  1
  Si  Si8  1  0.97134100  0.02865900  0.90946300  1
  Si  Si9  1  0.02865900  0.97134100  0.09053700  1
  Si  Si10  1  0.97134100  0.02865900  0.59053700  1
  Si  Si11  1  0.02865900  0.97134100  0.40946300  1
# generated using pymatgen
data_Si
_symmetry_space_group_name_H-M   'P 1'
_cell_length_a   5.71140266
_cell_length_b   5.71140266
_cell_length_c   12.72749600
_cell_angle_alpha   90.00000000
_cell_angle_beta   90.00000000
_cell_angle_gamma   140.56606592
_symmetry_Int_Tables_number   1
_chemical_formula_structural   Si
_chemical_formula_sum   Si12
_cell_volume   263.71258455
_cell_formula_units_Z   12
loop_
 _symmetry_equiv_pos_site_id
 _symmetry_equiv_pos_as_xyz
  1  'x, y, z'
loop_
 _atom_site_type_symbol
 _atom_site_label
 _atom_site_symmetry_multiplicity
 _atom_site_fract_x
 _atom_site_fract_y
 _atom_site_fract_z
 _atom_site_occupancy
  Si  Si0  1  0.75727300  0.24272700  0.94529600  1
  Si  Si1  1  0.24272700  0.75727300  0.05470400  1
  Si  Si2  1  0.75727300  0.24272700  0.55470400  1
  Si  Si3  1  0.24272700  0.75727300  0.44529600  1
  Si  Si4  1  0.42876300  0.57123700  0.15702700  1
  Si  Si5  1  0.57123700  0.42876300  0.84297300  1
  Si  Si6  1  0.42876300  0.57123700  0.34297300  1
  Si  Si7  1  0.57123700  0.42876300  0.65702700  1
  Si  Si8  1  0.97134100  0.02865900  0.90946300  1
  Si  Si9  1  0.02865900  0.97134100  0.09053700  1
  Si  Si10  1  0.97134100  0.02865900  0.59053700  1
  Si  Si11  1  0.02865900  0.97134100  0.40946300  1
# generated using pymatgen
data_Si
_symmetry_space_group_name_H-M   'P 1'
_cell_length_a   5.71140266
_cell_length_b   5.71140266
_cell_length_c   12.72749600
_cell_angle_alpha   90.00000000
_cell_angle_beta   90.00000000
_cell_angle_gamma   140.56606592
_symmetry_Int_Tables_number   1
_chemical_formula_structural   Si
_chemical_formula_sum   Si12
_cell_volume   263.71258455
_cell_formula_units_Z   12
loop_
 _symmetry_equiv_pos_site_id
 _symmetry_equiv_pos_as_xyz
  1  'x, y, z'
loop_
 _atom_site_type_symbol
 _atom_site_label
 _atom_site_symmetry_multiplicity
 _atom_site_fract_x
 _atom_site_fract_y
 _atom_site_fract_z
 _atom_site_occupancy
  Si  Si0  1  0.75727300  0.24272700  0.94529600  1
  Si  Si1  1  0.24272700  0.75727300  0.05470400  1
  Si  Si2  1  0.75727300  0.24272700  0.55470400  1
  Si  Si3  1  0.24272700  0.75727300  0.44529600  1
  Si  Si4  1  0.42876300  0.57123700  0.15702700  1
  Si  Si5  1  0.57123700  0.42876300  0.84297300  1
  Si  Si6  1  0.42876300  0.57123700  0.34297300  1
  Si  Si7  1  0.57123700  0.42876300  0.65702700  1
  Si  Si8  1  0.97134100  0.02865900  0.90946300  1
  Si  Si9  1  0.02865900  0.97134100  0.09053700  1
  Si  Si10  1  0.97134100  0.02865900  0.59053700  1
  Si  Si11  1  0.02865900  0.97134100  0.40946300  1
# generated using pymatgen
data_Si
_symmetry_space_group_name_H-M   'P 1'
_cell_length_a   5.71140266
_cell_length_b   5.71140266
_cell_length_c   12.72749600
_cell_angle_alpha   90.00000000
_cell_angle_beta   90.00000000
_cell_angle_gamma   140.56606592
_symmetry_Int_Tables_number   1
_chemical_formula_structural   Si
_chemical_formula_sum   Si12
_cell_volume   263.71258455
_cell_formula_units_Z   12
loop_
 _symmetry_equiv_pos_site_id
 _symmetry_equiv_pos_as_xyz
  1  'x, y, z'
loop_
 _atom_site_type_symbol
 _atom_site_label
 _atom_site_symmetry_multiplicity
 _atom_site_fract_x
 _atom_site_fract_y
 _atom_site_fract_z
 _atom_site_occupancy
  Si  Si0  1  0.75727300  0.24272700  0.94529600  1
  Si  Si1  1  0.24272700  0.75727300  0.05470400  1
  Si  Si2  1  0.75727300  0.24272700  0.55470400  1
  Si  Si3  1  0.24272700  0.75727300  0.44529600  1
  Si  Si4  1  0.42876300  0.57123700  0.15702700  1
  Si  Si5  1  0.57123700  0.42876300  0.84297300  1
  Si  Si6  1  0.42876300  0.57123700  0.34297300  1
  Si  Si7  1  0.57123700  0.42876300  0.65702700  1
  Si  Si8  1  0.97134100  0.02865900  0.90946300  1
  Si  Si9  1  0.02865900  0.97134100  0.09053700  1
  Si  Si10  1  0.97134100  0.02865900  0.59053700  1
  Si  Si11  1  0.02865900  0.97134100  0.40946300  1
