# generated using pymatgen
data_Si
_symmetry_space_group_name_H-M   'P 1'
_cell_length_a   5.07791981
_cell_length_b   5.07791981
_cell_length_c   5.18306700
_cell_angle_alpha   90.00000000
_cell_angle_beta   90.00000000
_cell_angle_gamma   118.99725284
_symmetry_Int_Tables_number   1
_chemical_formula_structural   Si
_chemical_formula_sum   Si8
_cell_volume   116.89321424
_cell_formula_units_Z   8
loop_
 _symmetry_equiv_pos_site_id
 _symmetry_equiv_pos_as_xyz
  1  'x, y, z'
loop_
 _atom_site_type_symbol
 _atom_site_label
 _atom_site_symmetry_multiplicity
 _atom_site_fract_x
 _atom_site_fract_y
 _atom_site_fract_z
 _atom_site_occupancy
  Si  Si0  1  0.34438000  0.34438000  0.82587000  1
  Si  Si1  1  0.65562000  0.65562000  0.17413000  1
  Si  Si2  1  0.15562000  0.15562000  0.32587000  1
  Si  Si3  1  0.84438000  0.84438000  0.67413000  1
  Si  Si4  1  0.70571500  0.29428500  0.50000000  1
  Si  Si5  1  0.20571500  0.79428500  0.00000000  1
  Si  Si6  1  0.29428500  0.70571500  0.50000000  1
  Si  Si7  1  0.79428500  0.20571500  0.00000000  1
# generated using pymatgen
data_Si
_symmetry_space_group_name_H-M   'P 1'
_cell_length_a   5.07791981
_cell_length_b   5.07791981
_cell_length_c   5.18306700
_cell_angle_alpha   90.00000000
_cell_angle_beta   90.00000000
_cell_angle_gamma   118.99725284
_symmetry_Int_Tables_number   1
_chemical_formula_structural   Si
_chemical_formula_sum   Si8
_cell_volume   116.89321424
_cell_formula_units_Z   8
loop_
 _symmetry_equiv_pos_site_id
 _symmetry_equiv_pos_as_xyz
  1  'x, y, z'
loop_
 _atom_site_type_symbol
 _atom_site_label
 _atom_site_symmetry_multiplicity
 _atom_site_fract_x
 _atom_site_fract_y
 _atom_site_fract_z
 _atom_site_occupancy
  Si  Si0  1  0.34438000  0.34438000  0.82587000  1
  Si  Si1  1  0.65562000  0.65562000  0.17413000  1
  Si  Si2  1  0.15562000  0.15562000  0.32587000  1
  Si  Si3  1  0.84438000  0.84438000  0.67413000  1
  Si  Si4  1  0.70571500  0.29428500  0.50000000  1
  Si  Si5  1  0.20571500  0.79428500  0.00000000  1
  Si  Si6  1  0.29428500  0.70571500  0.50000000  1
  Si  Si7  1  0.79428500  0.20571500  0.00000000  1
# generated using pymatgen
data_Si
_symmetry_space_group_name_H-M   'P 1'
_cell_length_a   5.07791981
_cell_length_b   5.07791981
_cell_length_c   5.18306700
_cell_angle_alpha   90.00000000
_cell_angle_beta   90.00000000
_cell_angle_gamma   118.99725284
_symmetry_Int_Tables_number   1
_chemical_formula_structural   Si
_chemical_formula_sum   Si8
_cell_volume   116.89321424
_cell_formula_units_Z   8
loop_
 _symmetry_equiv_pos_site_id
 _symmetry_equiv_pos_as_xyz
  1  'x, y, z'
loop_
 _atom_site_type_symbol
 _atom_site_label
 _atom_site_symmetry_multiplicity
 _atom_site_fract_x
 _atom_site_fract_y
 _atom_site_fract_z
 _atom_site_occupancy
  Si  Si0  1  0.34438000  0.34438000  0.82587000  1
  Si  Si1  1  0.65562000  0.65562000  0.17413000  1
  Si  Si2  1  0.15562000  0.15562000  0.32587000  1
  Si  Si3  1  0.84438000  0.84438000  0.67413000  1
  Si  Si4  1  0.70571500  0.29428500  0.50000000  1
  Si  Si5  1  0.20571500  0.79428500  0.00000000  1
  Si  Si6  1  0.29428500  0.70571500  0.50000000  1
  Si  Si7  1  0.79428500  0.20571500  0.00000000  1
# generated using pymatgen
data_Si
_symmetry_space_group_name_H-M   'P 1'
_cell_length_a   5.07791981
_cell_length_b   5.07791981
_cell_length_c   5.18306700
_cell_angle_alpha   90.00000000
_cell_angle_beta   90.00000000
_cell_angle_gamma   118.99725284
_symmetry_Int_Tables_number   1
_chemical_formula_structural   Si
_chemical_formula_sum   Si8
_cell_volume   116.89321424
_cell_formula_units_Z   8
loop_
 _symmetry_equiv_pos_site_id
 _symmetry_equiv_pos_as_xyz
  1  'x, y, z'
loop_
 _atom_site_type_symbol
 _atom_site_label
 _atom_site_symmetry_multiplicity
 _atom_site_fract_x
 _atom_site_fract_y
 _atom_site_fract_z
 _atom_site_occupancy
  Si  Si0  1  0.34438000  0.34438000  0.82587000  1
  Si  Si1  1  0.65562000  0.65562000  0.17413000  1
  Si  Si2  1  0.15562000  0.15562000  0.32587000  1
  Si  Si3  1  0.84438000  0.84438000  0.67413000  1
  Si  Si4  1  0.70571500  0.29428500  0.50000000  1
  Si  Si5  1  0.20571500  0.79428500  0.00000000  1
  Si  Si6  1  0.29428500  0.70571500  0.50000000  1
  Si  Si7  1  0.79428500  0.20571500  0.00000000  1
# generated using pymatgen
data_Si
_symmetry_space_group_name_H-M   'P 1'
_cell_length_a   5.07791981
_cell_length_b   5.07791981
_cell_length_c   5.18306700
_cell_angle_alpha   90.00000000
_cell_angle_beta   90.00000000
_cell_angle_gamma   118.99725284
_symmetry_Int_Tables_number   1
_chemical_formula_structural   Si
_chemical_formula_sum   Si8
_cell_volume   116.89321424
_cell_formula_units_Z   8
loop_
 _symmetry_equiv_pos_site_id
 _symmetry_equiv_pos_as_xyz
  1  'x, y, z'
loop_
 _atom_site_type_symbol
 _atom_site_label
 _atom_site_symmetry_multiplicity
 _atom_site_fract_x
 _atom_site_fract_y
 _atom_site_fract_z
 _atom_site_occupancy
  Si  Si0  1  0.34438000  0.34438000  0.82587000  1
  Si  Si1  1  0.65562000  0.65562000  0.17413000  1
  Si  Si2  1  0.15562000  0.15562000  0.32587000  1
  Si  Si3  1  0.84438000  0.84438000  0.67413000  1
  Si  Si4  1  0.70571500  0.29428500  0.50000000  1
  Si  Si5  1  0.20571500  0.79428500  0.00000000  1
  Si  Si6  1  0.29428500  0.70571500  0.50000000  1
  Si  Si7  1  0.79428500  0.20571500  0.00000000  1
# generated using pymatgen
data_Si
_symmetry_space_group_name_H-M   'P 1'
_cell_length_a   5.07791981
_cell_length_b   5.07791981
_cell_length_c   5.18306700
_cell_angle_alpha   90.00000000
_cell_angle_beta   90.00000000
_cell_angle_gamma   118.99725284
_symmetry_Int_Tables_number   1
_chemical_formula_structural   Si
_chemical_formula_sum   Si8
_cell_volume   116.89321424
_cell_formula_units_Z   8
loop_
 _symmetry_equiv_pos_site_id
 _symmetry_equiv_pos_as_xyz
  1  'x, y, z'
loop_
 _atom_site_type_symbol
 _atom_site_label
 _atom_site_symmetry_multiplicity
 _atom_site_fract_x
 _atom_site_fract_y
 _atom_site_fract_z
 _atom_site_occupancy
  Si  Si0  1  0.34438000  0.34438000  0.82587000  1
  Si  Si1  1  0.65562000  0.65562000  0.17413000  1
  Si  Si2  1  0.15562000  0.15562000  0.32587000  1
  Si  Si3  1  0.84438000  0.84438000  0.67413000  1
  Si  Si4  1  0.70571500  0.29428500  0.50000000  1
  Si  Si5  1  0.20571500  0.79428500  0.00000000  1
  Si  Si6  1  0.29428500  0.70571500  0.50000000  1
  Si  Si7  1  0.79428500  0.20571500  0.00000000  1
