# generated using pymatgen
data_Se
_symmetry_space_group_name_H-M   'P 1'
_cell_length_a   10.27310400
_cell_length_b   9.45037300
_cell_length_c   15.43515780
_cell_angle_alpha   53.08043167
_cell_angle_beta   90.00000000
_cell_angle_gamma   90.00000000
_symmetry_Int_Tables_number   1
_chemical_formula_structural   Se
_chemical_formula_sum   Se32
_cell_volume   1198.03379087
_cell_formula_units_Z   32
loop_
 _symmetry_equiv_pos_site_id
 _symmetry_equiv_pos_as_xyz
  1  'x, y, z'
loop_
 _atom_site_type_symbol
 _atom_site_label
 _atom_site_symmetry_multiplicity
 _atom_site_fract_x
 _atom_site_fract_y
 _atom_site_fract_z
 _atom_site_occupancy
  Se  Se0  1  0.49524900  0.92531100  0.75742100  1
  Se  Se1  1  0.99524900  0.07468900  0.74257900  1
  Se  Se2  1  0.50475100  0.07468900  0.24257900  1
  Se  Se3  1  0.00475100  0.92531100  0.25742100  1
  Se  Se4  1  0.65424100  0.93924000  0.64174300  1
  Se  Se5  1  0.15424100  0.06076000  0.85825700  1
  Se  Se6  1  0.34575900  0.06076000  0.35825700  1
  Se  Se7  1  0.84575900  0.93924000  0.14174300  1
  Se  Se8  1  0.63917400  0.21412200  0.46850400  1
  Se  Se9  1  0.13917400  0.78587800  0.03149600  1
  Se  Se10  1  0.36082600  0.78587800  0.53149600  1
  Se  Se11  1  0.86082600  0.21412200  0.96850400  1
  Se  Se12  1  0.79906000  0.40866500  0.45376900  1
  Se  Se13  1  0.29906000  0.59133500  0.04623100  1
  Se  Se14  1  0.20094000  0.59133500  0.54623100  1
  Se  Se15  1  0.70094000  0.40866500  0.95376900  1
  Se  Se16  1  0.69233500  0.59418700  0.48636800  1
  Se  Se17  1  0.19233500  0.40581300  0.01363200  1
  Se  Se18  1  0.30766500  0.40581300  0.51363200  1
  Se  Se19  1  0.80766500  0.59418700  0.98636800  1
  Se  Se20  1  0.72304000  0.48093800  0.66897600  1
  Se  Se21  1  0.22304000  0.51906200  0.83102400  1
  Se  Se22  1  0.27696000  0.51906200  0.33102400  1
  Se  Se23  1  0.77696000  0.48093800  0.16897600  1
  Se  Se24  1  0.53805100  0.31025100  0.76970200  1
  Se  Se25  1  0.03805100  0.68974900  0.73029800  1
  Se  Se26  1  0.46194900  0.68974900  0.23029800  1
  Se  Se27  1  0.96194900  0.31025100  0.26970200  1
  Se  Se28  1  0.59416200  0.01097000  0.85741200  1
  Se  Se29  1  0.09416200  0.98903000  0.64258800  1
  Se  Se30  1  0.40583800  0.98903000  0.14258800  1
  Se  Se31  1  0.90583800  0.01097000  0.35741200  1
# generated using pymatgen
data_Se
_symmetry_space_group_name_H-M   'P 1'
_cell_length_a   10.27310400
_cell_length_b   9.45037300
_cell_length_c   15.43515780
_cell_angle_alpha   53.08043167
_cell_angle_beta   90.00000000
_cell_angle_gamma   90.00000000
_symmetry_Int_Tables_number   1
_chemical_formula_structural   Se
_chemical_formula_sum   Se32
_cell_volume   1198.03379087
_cell_formula_units_Z   32
loop_
 _symmetry_equiv_pos_site_id
 _symmetry_equiv_pos_as_xyz
  1  'x, y, z'
loop_
 _atom_site_type_symbol
 _atom_site_label
 _atom_site_symmetry_multiplicity
 _atom_site_fract_x
 _atom_site_fract_y
 _atom_site_fract_z
 _atom_site_occupancy
  Se  Se0  1  0.49524900  0.92531100  0.75742100  1
  Se  Se1  1  0.99524900  0.07468900  0.74257900  1
  Se  Se2  1  0.50475100  0.07468900  0.24257900  1
  Se  Se3  1  0.00475100  0.92531100  0.25742100  1
  Se  Se4  1  0.65424100  0.93924000  0.64174300  1
  Se  Se5  1  0.15424100  0.06076000  0.85825700  1
  Se  Se6  1  0.34575900  0.06076000  0.35825700  1
  Se  Se7  1  0.84575900  0.93924000  0.14174300  1
  Se  Se8  1  0.63917400  0.21412200  0.46850400  1
  Se  Se9  1  0.13917400  0.78587800  0.03149600  1
  Se  Se10  1  0.36082600  0.78587800  0.53149600  1
  Se  Se11  1  0.86082600  0.21412200  0.96850400  1
  Se  Se12  1  0.79906000  0.40866500  0.45376900  1
  Se  Se13  1  0.29906000  0.59133500  0.04623100  1
  Se  Se14  1  0.20094000  0.59133500  0.54623100  1
  Se  Se15  1  0.70094000  0.40866500  0.95376900  1
  Se  Se16  1  0.69233500  0.59418700  0.48636800  1
  Se  Se17  1  0.19233500  0.40581300  0.01363200  1
  Se  Se18  1  0.30766500  0.40581300  0.51363200  1
  Se  Se19  1  0.80766500  0.59418700  0.98636800  1
  Se  Se20  1  0.72304000  0.48093800  0.66897600  1
  Se  Se21  1  0.22304000  0.51906200  0.83102400  1
  Se  Se22  1  0.27696000  0.51906200  0.33102400  1
  Se  Se23  1  0.77696000  0.48093800  0.16897600  1
  Se  Se24  1  0.53805100  0.31025100  0.76970200  1
  Se  Se25  1  0.03805100  0.68974900  0.73029800  1
  Se  Se26  1  0.46194900  0.68974900  0.23029800  1
  Se  Se27  1  0.96194900  0.31025100  0.26970200  1
  Se  Se28  1  0.59416200  0.01097000  0.85741200  1
  Se  Se29  1  0.09416200  0.98903000  0.64258800  1
  Se  Se30  1  0.40583800  0.98903000  0.14258800  1
  Se  Se31  1  0.90583800  0.01097000  0.35741200  1
# generated using pymatgen
data_Se
_symmetry_space_group_name_H-M   'P 1'
_cell_length_a   10.27310400
_cell_length_b   9.45037300
_cell_length_c   15.43515780
_cell_angle_alpha   53.08043167
_cell_angle_beta   90.00000000
_cell_angle_gamma   90.00000000
_symmetry_Int_Tables_number   1
_chemical_formula_structural   Se
_chemical_formula_sum   Se32
_cell_volume   1198.03379087
_cell_formula_units_Z   32
loop_
 _symmetry_equiv_pos_site_id
 _symmetry_equiv_pos_as_xyz
  1  'x, y, z'
loop_
 _atom_site_type_symbol
 _atom_site_label
 _atom_site_symmetry_multiplicity
 _atom_site_fract_x
 _atom_site_fract_y
 _atom_site_fract_z
 _atom_site_occupancy
  Se  Se0  1  0.49524900  0.92531100  0.75742100  1
  Se  Se1  1  0.99524900  0.07468900  0.74257900  1
  Se  Se2  1  0.50475100  0.07468900  0.24257900  1
  Se  Se3  1  0.00475100  0.92531100  0.25742100  1
  Se  Se4  1  0.65424100  0.93924000  0.64174300  1
  Se  Se5  1  0.15424100  0.06076000  0.85825700  1
  Se  Se6  1  0.34575900  0.06076000  0.35825700  1
  Se  Se7  1  0.84575900  0.93924000  0.14174300  1
  Se  Se8  1  0.63917400  0.21412200  0.46850400  1
  Se  Se9  1  0.13917400  0.78587800  0.03149600  1
  Se  Se10  1  0.36082600  0.78587800  0.53149600  1
  Se  Se11  1  0.86082600  0.21412200  0.96850400  1
  Se  Se12  1  0.79906000  0.40866500  0.45376900  1
  Se  Se13  1  0.29906000  0.59133500  0.04623100  1
  Se  Se14  1  0.20094000  0.59133500  0.54623100  1
  Se  Se15  1  0.70094000  0.40866500  0.95376900  1
  Se  Se16  1  0.69233500  0.59418700  0.48636800  1
  Se  Se17  1  0.19233500  0.40581300  0.01363200  1
  Se  Se18  1  0.30766500  0.40581300  0.51363200  1
  Se  Se19  1  0.80766500  0.59418700  0.98636800  1
  Se  Se20  1  0.72304000  0.48093800  0.66897600  1
  Se  Se21  1  0.22304000  0.51906200  0.83102400  1
  Se  Se22  1  0.27696000  0.51906200  0.33102400  1
  Se  Se23  1  0.77696000  0.48093800  0.16897600  1
  Se  Se24  1  0.53805100  0.31025100  0.76970200  1
  Se  Se25  1  0.03805100  0.68974900  0.73029800  1
  Se  Se26  1  0.46194900  0.68974900  0.23029800  1
  Se  Se27  1  0.96194900  0.31025100  0.26970200  1
  Se  Se28  1  0.59416200  0.01097000  0.85741200  1
  Se  Se29  1  0.09416200  0.98903000  0.64258800  1
  Se  Se30  1  0.40583800  0.98903000  0.14258800  1
  Se  Se31  1  0.90583800  0.01097000  0.35741200  1
# generated using pymatgen
data_Se
_symmetry_space_group_name_H-M   'P 1'
_cell_length_a   10.27310400
_cell_length_b   9.45037300
_cell_length_c   15.43515780
_cell_angle_alpha   53.08043167
_cell_angle_beta   90.00000000
_cell_angle_gamma   90.00000000
_symmetry_Int_Tables_number   1
_chemical_formula_structural   Se
_chemical_formula_sum   Se32
_cell_volume   1198.03379087
_cell_formula_units_Z   32
loop_
 _symmetry_equiv_pos_site_id
 _symmetry_equiv_pos_as_xyz
  1  'x, y, z'
loop_
 _atom_site_type_symbol
 _atom_site_label
 _atom_site_symmetry_multiplicity
 _atom_site_fract_x
 _atom_site_fract_y
 _atom_site_fract_z
 _atom_site_occupancy
  Se  Se0  1  0.49524900  0.92531100  0.75742100  1
  Se  Se1  1  0.99524900  0.07468900  0.74257900  1
  Se  Se2  1  0.50475100  0.07468900  0.24257900  1
  Se  Se3  1  0.00475100  0.92531100  0.25742100  1
  Se  Se4  1  0.65424100  0.93924000  0.64174300  1
  Se  Se5  1  0.15424100  0.06076000  0.85825700  1
  Se  Se6  1  0.34575900  0.06076000  0.35825700  1
  Se  Se7  1  0.84575900  0.93924000  0.14174300  1
  Se  Se8  1  0.63917400  0.21412200  0.46850400  1
  Se  Se9  1  0.13917400  0.78587800  0.03149600  1
  Se  Se10  1  0.36082600  0.78587800  0.53149600  1
  Se  Se11  1  0.86082600  0.21412200  0.96850400  1
  Se  Se12  1  0.79906000  0.40866500  0.45376900  1
  Se  Se13  1  0.29906000  0.59133500  0.04623100  1
  Se  Se14  1  0.20094000  0.59133500  0.54623100  1
  Se  Se15  1  0.70094000  0.40866500  0.95376900  1
  Se  Se16  1  0.69233500  0.59418700  0.48636800  1
  Se  Se17  1  0.19233500  0.40581300  0.01363200  1
  Se  Se18  1  0.30766500  0.40581300  0.51363200  1
  Se  Se19  1  0.80766500  0.59418700  0.98636800  1
  Se  Se20  1  0.72304000  0.48093800  0.66897600  1
  Se  Se21  1  0.22304000  0.51906200  0.83102400  1
  Se  Se22  1  0.27696000  0.51906200  0.33102400  1
  Se  Se23  1  0.77696000  0.48093800  0.16897600  1
  Se  Se24  1  0.53805100  0.31025100  0.76970200  1
  Se  Se25  1  0.03805100  0.68974900  0.73029800  1
  Se  Se26  1  0.46194900  0.68974900  0.23029800  1
  Se  Se27  1  0.96194900  0.31025100  0.26970200  1
  Se  Se28  1  0.59416200  0.01097000  0.85741200  1
  Se  Se29  1  0.09416200  0.98903000  0.64258800  1
  Se  Se30  1  0.40583800  0.98903000  0.14258800  1
  Se  Se31  1  0.90583800  0.01097000  0.35741200  1
# generated using pymatgen
data_Se
_symmetry_space_group_name_H-M   'P 1'
_cell_length_a   10.27310400
_cell_length_b   9.45037300
_cell_length_c   15.43515780
_cell_angle_alpha   53.08043167
_cell_angle_beta   90.00000000
_cell_angle_gamma   90.00000000
_symmetry_Int_Tables_number   1
_chemical_formula_structural   Se
_chemical_formula_sum   Se32
_cell_volume   1198.03379087
_cell_formula_units_Z   32
loop_
 _symmetry_equiv_pos_site_id
 _symmetry_equiv_pos_as_xyz
  1  'x, y, z'
loop_
 _atom_site_type_symbol
 _atom_site_label
 _atom_site_symmetry_multiplicity
 _atom_site_fract_x
 _atom_site_fract_y
 _atom_site_fract_z
 _atom_site_occupancy
  Se  Se0  1  0.49524900  0.92531100  0.75742100  1
  Se  Se1  1  0.99524900  0.07468900  0.74257900  1
  Se  Se2  1  0.50475100  0.07468900  0.24257900  1
  Se  Se3  1  0.00475100  0.92531100  0.25742100  1
  Se  Se4  1  0.65424100  0.93924000  0.64174300  1
  Se  Se5  1  0.15424100  0.06076000  0.85825700  1
  Se  Se6  1  0.34575900  0.06076000  0.35825700  1
  Se  Se7  1  0.84575900  0.93924000  0.14174300  1
  Se  Se8  1  0.63917400  0.21412200  0.46850400  1
  Se  Se9  1  0.13917400  0.78587800  0.03149600  1
  Se  Se10  1  0.36082600  0.78587800  0.53149600  1
  Se  Se11  1  0.86082600  0.21412200  0.96850400  1
  Se  Se12  1  0.79906000  0.40866500  0.45376900  1
  Se  Se13  1  0.29906000  0.59133500  0.04623100  1
  Se  Se14  1  0.20094000  0.59133500  0.54623100  1
  Se  Se15  1  0.70094000  0.40866500  0.95376900  1
  Se  Se16  1  0.69233500  0.59418700  0.48636800  1
  Se  Se17  1  0.19233500  0.40581300  0.01363200  1
  Se  Se18  1  0.30766500  0.40581300  0.51363200  1
  Se  Se19  1  0.80766500  0.59418700  0.98636800  1
  Se  Se20  1  0.72304000  0.48093800  0.66897600  1
  Se  Se21  1  0.22304000  0.51906200  0.83102400  1
  Se  Se22  1  0.27696000  0.51906200  0.33102400  1
  Se  Se23  1  0.77696000  0.48093800  0.16897600  1
  Se  Se24  1  0.53805100  0.31025100  0.76970200  1
  Se  Se25  1  0.03805100  0.68974900  0.73029800  1
  Se  Se26  1  0.46194900  0.68974900  0.23029800  1
  Se  Se27  1  0.96194900  0.31025100  0.26970200  1
  Se  Se28  1  0.59416200  0.01097000  0.85741200  1
  Se  Se29  1  0.09416200  0.98903000  0.64258800  1
  Se  Se30  1  0.40583800  0.98903000  0.14258800  1
  Se  Se31  1  0.90583800  0.01097000  0.35741200  1
