# generated using pymatgen
data_Si
_symmetry_space_group_name_H-M   'P 1'
_cell_length_a   5.77079208
_cell_length_b   5.77079208
_cell_length_c   5.77079155
_cell_angle_alpha   109.80755937
_cell_angle_beta   109.80755937
_cell_angle_gamma   109.80756637
_symmetry_Int_Tables_number   1
_chemical_formula_structural   Si
_chemical_formula_sum   Si8
_cell_volume   146.06829004
_cell_formula_units_Z   8
loop_
 _symmetry_equiv_pos_site_id
 _symmetry_equiv_pos_as_xyz
  1  'x, y, z'
loop_
 _atom_site_type_symbol
 _atom_site_label
 _atom_site_symmetry_multiplicity
 _atom_site_fract_x
 _atom_site_fract_y
 _atom_site_fract_z
 _atom_site_occupancy
  Si  Si0  1  0.98158400  0.28337600  0.47982600  1
  Si  Si1  1  0.01841600  0.71662400  0.52017400  1
  Si  Si2  1  0.28692900  0.28692900  0.28692900  1
  Si  Si3  1  0.71662400  0.52017400  0.01841600  1
  Si  Si4  1  0.52017400  0.01841600  0.71662400  1
  Si  Si5  1  0.28337600  0.47982600  0.98158400  1
  Si  Si6  1  0.71307100  0.71307100  0.71307100  1
  Si  Si7  1  0.47982600  0.98158400  0.28337600  1
# generated using pymatgen
data_Si
_symmetry_space_group_name_H-M   'P 1'
_cell_length_a   5.77079208
_cell_length_b   5.77079208
_cell_length_c   5.77079155
_cell_angle_alpha   109.80755937
_cell_angle_beta   109.80755937
_cell_angle_gamma   109.80756637
_symmetry_Int_Tables_number   1
_chemical_formula_structural   Si
_chemical_formula_sum   Si8
_cell_volume   146.06829004
_cell_formula_units_Z   8
loop_
 _symmetry_equiv_pos_site_id
 _symmetry_equiv_pos_as_xyz
  1  'x, y, z'
loop_
 _atom_site_type_symbol
 _atom_site_label
 _atom_site_symmetry_multiplicity
 _atom_site_fract_x
 _atom_site_fract_y
 _atom_site_fract_z
 _atom_site_occupancy
  Si  Si0  1  0.98158400  0.28337600  0.47982600  1
  Si  Si1  1  0.01841600  0.71662400  0.52017400  1
  Si  Si2  1  0.28692900  0.28692900  0.28692900  1
  Si  Si3  1  0.71662400  0.52017400  0.01841600  1
  Si  Si4  1  0.52017400  0.01841600  0.71662400  1
  Si  Si5  1  0.28337600  0.47982600  0.98158400  1
  Si  Si6  1  0.71307100  0.71307100  0.71307100  1
  Si  Si7  1  0.47982600  0.98158400  0.28337600  1
# generated using pymatgen
data_Si
_symmetry_space_group_name_H-M   'P 1'
_cell_length_a   5.77079208
_cell_length_b   5.77079208
_cell_length_c   5.77079155
_cell_angle_alpha   109.80755937
_cell_angle_beta   109.80755937
_cell_angle_gamma   109.80756637
_symmetry_Int_Tables_number   1
_chemical_formula_structural   Si
_chemical_formula_sum   Si8
_cell_volume   146.06829004
_cell_formula_units_Z   8
loop_
 _symmetry_equiv_pos_site_id
 _symmetry_equiv_pos_as_xyz
  1  'x, y, z'
loop_
 _atom_site_type_symbol
 _atom_site_label
 _atom_site_symmetry_multiplicity
 _atom_site_fract_x
 _atom_site_fract_y
 _atom_site_fract_z
 _atom_site_occupancy
  Si  Si0  1  0.98158400  0.28337600  0.47982600  1
  Si  Si1  1  0.01841600  0.71662400  0.52017400  1
  Si  Si2  1  0.28692900  0.28692900  0.28692900  1
  Si  Si3  1  0.71662400  0.52017400  0.01841600  1
  Si  Si4  1  0.52017400  0.01841600  0.71662400  1
  Si  Si5  1  0.28337600  0.47982600  0.98158400  1
  Si  Si6  1  0.71307100  0.71307100  0.71307100  1
  Si  Si7  1  0.47982600  0.98158400  0.28337600  1
# generated using pymatgen
data_Si
_symmetry_space_group_name_H-M   'P 1'
_cell_length_a   5.77079208
_cell_length_b   5.77079208
_cell_length_c   5.77079155
_cell_angle_alpha   109.80755937
_cell_angle_beta   109.80755937
_cell_angle_gamma   109.80756637
_symmetry_Int_Tables_number   1
_chemical_formula_structural   Si
_chemical_formula_sum   Si8
_cell_volume   146.06829004
_cell_formula_units_Z   8
loop_
 _symmetry_equiv_pos_site_id
 _symmetry_equiv_pos_as_xyz
  1  'x, y, z'
loop_
 _atom_site_type_symbol
 _atom_site_label
 _atom_site_symmetry_multiplicity
 _atom_site_fract_x
 _atom_site_fract_y
 _atom_site_fract_z
 _atom_site_occupancy
  Si  Si0  1  0.98158400  0.28337600  0.47982600  1
  Si  Si1  1  0.01841600  0.71662400  0.52017400  1
  Si  Si2  1  0.28692900  0.28692900  0.28692900  1
  Si  Si3  1  0.71662400  0.52017400  0.01841600  1
  Si  Si4  1  0.52017400  0.01841600  0.71662400  1
  Si  Si5  1  0.28337600  0.47982600  0.98158400  1
  Si  Si6  1  0.71307100  0.71307100  0.71307100  1
  Si  Si7  1  0.47982600  0.98158400  0.28337600  1
# generated using pymatgen
data_Si
_symmetry_space_group_name_H-M   'P 1'
_cell_length_a   5.77079208
_cell_length_b   5.77079208
_cell_length_c   5.77079155
_cell_angle_alpha   109.80755937
_cell_angle_beta   109.80755937
_cell_angle_gamma   109.80756637
_symmetry_Int_Tables_number   1
_chemical_formula_structural   Si
_chemical_formula_sum   Si8
_cell_volume   146.06829004
_cell_formula_units_Z   8
loop_
 _symmetry_equiv_pos_site_id
 _symmetry_equiv_pos_as_xyz
  1  'x, y, z'
loop_
 _atom_site_type_symbol
 _atom_site_label
 _atom_site_symmetry_multiplicity
 _atom_site_fract_x
 _atom_site_fract_y
 _atom_site_fract_z
 _atom_site_occupancy
  Si  Si0  1  0.98158400  0.28337600  0.47982600  1
  Si  Si1  1  0.01841600  0.71662400  0.52017400  1
  Si  Si2  1  0.28692900  0.28692900  0.28692900  1
  Si  Si3  1  0.71662400  0.52017400  0.01841600  1
  Si  Si4  1  0.52017400  0.01841600  0.71662400  1
  Si  Si5  1  0.28337600  0.47982600  0.98158400  1
  Si  Si6  1  0.71307100  0.71307100  0.71307100  1
  Si  Si7  1  0.47982600  0.98158400  0.28337600  1
# generated using pymatgen
data_Si
_symmetry_space_group_name_H-M   'P 1'
_cell_length_a   5.77079208
_cell_length_b   5.77079208
_cell_length_c   5.77079155
_cell_angle_alpha   109.80755937
_cell_angle_beta   109.80755937
_cell_angle_gamma   109.80756637
_symmetry_Int_Tables_number   1
_chemical_formula_structural   Si
_chemical_formula_sum   Si8
_cell_volume   146.06829004
_cell_formula_units_Z   8
loop_
 _symmetry_equiv_pos_site_id
 _symmetry_equiv_pos_as_xyz
  1  'x, y, z'
loop_
 _atom_site_type_symbol
 _atom_site_label
 _atom_site_symmetry_multiplicity
 _atom_site_fract_x
 _atom_site_fract_y
 _atom_site_fract_z
 _atom_site_occupancy
  Si  Si0  1  0.98158400  0.28337600  0.47982600  1
  Si  Si1  1  0.01841600  0.71662400  0.52017400  1
  Si  Si2  1  0.28692900  0.28692900  0.28692900  1
  Si  Si3  1  0.71662400  0.52017400  0.01841600  1
  Si  Si4  1  0.52017400  0.01841600  0.71662400  1
  Si  Si5  1  0.28337600  0.47982600  0.98158400  1
  Si  Si6  1  0.71307100  0.71307100  0.71307100  1
  Si  Si7  1  0.47982600  0.98158400  0.28337600  1
