# generated using pymatgen
data_Se
_symmetry_space_group_name_H-M   'P 1'
_cell_length_a   8.48587100
_cell_length_b   10.23632400
_cell_length_c   13.64031129
_cell_angle_alpha   84.81061454
_cell_angle_beta   90.00000000
_cell_angle_gamma   90.00000000
_symmetry_Int_Tables_number   1
_chemical_formula_structural   Se
_chemical_formula_sum   Se32
_cell_volume   1179.99719308
_cell_formula_units_Z   32
loop_
 _symmetry_equiv_pos_site_id
 _symmetry_equiv_pos_as_xyz
  1  'x, y, z'
loop_
 _atom_site_type_symbol
 _atom_site_label
 _atom_site_symmetry_multiplicity
 _atom_site_fract_x
 _atom_site_fract_y
 _atom_site_fract_z
 _atom_site_occupancy
  Se  Se0  1  0.67957900  0.42387900  0.41465000  1
  Se  Se1  1  0.17957900  0.57612100  0.08535000  1
  Se  Se2  1  0.32042100  0.57612100  0.58535000  1
  Se  Se3  1  0.82042100  0.42387900  0.91465000  1
  Se  Se4  1  0.76598800  0.24654900  0.52416300  1
  Se  Se5  1  0.26598800  0.75345100  0.97583700  1
  Se  Se6  1  0.23401200  0.75345100  0.47583700  1
  Se  Se7  1  0.73401200  0.24654900  0.02416300  1
  Se  Se8  1  0.59769200  0.23261000  0.66345900  1
  Se  Se9  1  0.09769200  0.76739000  0.83654100  1
  Se  Se10  1  0.40230800  0.76739000  0.33654100  1
  Se  Se11  1  0.90230800  0.23261000  0.16345900  1
  Se  Se12  1  0.41473000  0.06278600  0.64491400  1
  Se  Se13  1  0.91473000  0.93721400  0.85508600  1
  Se  Se14  1  0.58527000  0.93721400  0.35508600  1
  Se  Se15  1  0.08527000  0.06278600  0.14491400  1
  Se  Se16  1  0.17650000  0.16133300  0.58670100  1
  Se  Se17  1  0.67650000  0.83866700  0.91329900  1
  Se  Se18  1  0.82350000  0.83866700  0.41329900  1
  Se  Se19  1  0.32350000  0.16133300  0.08670100  1
  Se  Se20  1  0.16678700  0.15300000  0.41353200  1
  Se  Se21  1  0.66678700  0.84700000  0.08646800  1
  Se  Se22  1  0.83321300  0.84700000  0.58646800  1
  Se  Se23  1  0.33321300  0.15300000  0.91353200  1
  Se  Se24  1  0.25273500  0.35850400  0.34006000  1
  Se  Se25  1  0.75273500  0.64149600  0.15994000  1
  Se  Se26  1  0.74726500  0.64149600  0.65994000  1
  Se  Se27  1  0.24726500  0.35850400  0.84006000  1
  Se  Se28  1  0.52022000  0.33686300  0.29435700  1
  Se  Se29  1  0.02022000  0.66313700  0.20564300  1
  Se  Se30  1  0.47978000  0.66313700  0.70564300  1
  Se  Se31  1  0.97978000  0.33686300  0.79435700  1
# generated using pymatgen
data_Se
_symmetry_space_group_name_H-M   'P 1'
_cell_length_a   8.48587100
_cell_length_b   10.23632400
_cell_length_c   13.64031129
_cell_angle_alpha   84.81061454
_cell_angle_beta   90.00000000
_cell_angle_gamma   90.00000000
_symmetry_Int_Tables_number   1
_chemical_formula_structural   Se
_chemical_formula_sum   Se32
_cell_volume   1179.99719308
_cell_formula_units_Z   32
loop_
 _symmetry_equiv_pos_site_id
 _symmetry_equiv_pos_as_xyz
  1  'x, y, z'
loop_
 _atom_site_type_symbol
 _atom_site_label
 _atom_site_symmetry_multiplicity
 _atom_site_fract_x
 _atom_site_fract_y
 _atom_site_fract_z
 _atom_site_occupancy
  Se  Se0  1  0.67957900  0.42387900  0.41465000  1
  Se  Se1  1  0.17957900  0.57612100  0.08535000  1
  Se  Se2  1  0.32042100  0.57612100  0.58535000  1
  Se  Se3  1  0.82042100  0.42387900  0.91465000  1
  Se  Se4  1  0.76598800  0.24654900  0.52416300  1
  Se  Se5  1  0.26598800  0.75345100  0.97583700  1
  Se  Se6  1  0.23401200  0.75345100  0.47583700  1
  Se  Se7  1  0.73401200  0.24654900  0.02416300  1
  Se  Se8  1  0.59769200  0.23261000  0.66345900  1
  Se  Se9  1  0.09769200  0.76739000  0.83654100  1
  Se  Se10  1  0.40230800  0.76739000  0.33654100  1
  Se  Se11  1  0.90230800  0.23261000  0.16345900  1
  Se  Se12  1  0.41473000  0.06278600  0.64491400  1
  Se  Se13  1  0.91473000  0.93721400  0.85508600  1
  Se  Se14  1  0.58527000  0.93721400  0.35508600  1
  Se  Se15  1  0.08527000  0.06278600  0.14491400  1
  Se  Se16  1  0.17650000  0.16133300  0.58670100  1
  Se  Se17  1  0.67650000  0.83866700  0.91329900  1
  Se  Se18  1  0.82350000  0.83866700  0.41329900  1
  Se  Se19  1  0.32350000  0.16133300  0.08670100  1
  Se  Se20  1  0.16678700  0.15300000  0.41353200  1
  Se  Se21  1  0.66678700  0.84700000  0.08646800  1
  Se  Se22  1  0.83321300  0.84700000  0.58646800  1
  Se  Se23  1  0.33321300  0.15300000  0.91353200  1
  Se  Se24  1  0.25273500  0.35850400  0.34006000  1
  Se  Se25  1  0.75273500  0.64149600  0.15994000  1
  Se  Se26  1  0.74726500  0.64149600  0.65994000  1
  Se  Se27  1  0.24726500  0.35850400  0.84006000  1
  Se  Se28  1  0.52022000  0.33686300  0.29435700  1
  Se  Se29  1  0.02022000  0.66313700  0.20564300  1
  Se  Se30  1  0.47978000  0.66313700  0.70564300  1
  Se  Se31  1  0.97978000  0.33686300  0.79435700  1
# generated using pymatgen
data_Se
_symmetry_space_group_name_H-M   'P 1'
_cell_length_a   8.48587100
_cell_length_b   10.23632400
_cell_length_c   13.64031129
_cell_angle_alpha   84.81061454
_cell_angle_beta   90.00000000
_cell_angle_gamma   90.00000000
_symmetry_Int_Tables_number   1
_chemical_formula_structural   Se
_chemical_formula_sum   Se32
_cell_volume   1179.99719308
_cell_formula_units_Z   32
loop_
 _symmetry_equiv_pos_site_id
 _symmetry_equiv_pos_as_xyz
  1  'x, y, z'
loop_
 _atom_site_type_symbol
 _atom_site_label
 _atom_site_symmetry_multiplicity
 _atom_site_fract_x
 _atom_site_fract_y
 _atom_site_fract_z
 _atom_site_occupancy
  Se  Se0  1  0.67957900  0.42387900  0.41465000  1
  Se  Se1  1  0.17957900  0.57612100  0.08535000  1
  Se  Se2  1  0.32042100  0.57612100  0.58535000  1
  Se  Se3  1  0.82042100  0.42387900  0.91465000  1
  Se  Se4  1  0.76598800  0.24654900  0.52416300  1
  Se  Se5  1  0.26598800  0.75345100  0.97583700  1
  Se  Se6  1  0.23401200  0.75345100  0.47583700  1
  Se  Se7  1  0.73401200  0.24654900  0.02416300  1
  Se  Se8  1  0.59769200  0.23261000  0.66345900  1
  Se  Se9  1  0.09769200  0.76739000  0.83654100  1
  Se  Se10  1  0.40230800  0.76739000  0.33654100  1
  Se  Se11  1  0.90230800  0.23261000  0.16345900  1
  Se  Se12  1  0.41473000  0.06278600  0.64491400  1
  Se  Se13  1  0.91473000  0.93721400  0.85508600  1
  Se  Se14  1  0.58527000  0.93721400  0.35508600  1
  Se  Se15  1  0.08527000  0.06278600  0.14491400  1
  Se  Se16  1  0.17650000  0.16133300  0.58670100  1
  Se  Se17  1  0.67650000  0.83866700  0.91329900  1
  Se  Se18  1  0.82350000  0.83866700  0.41329900  1
  Se  Se19  1  0.32350000  0.16133300  0.08670100  1
  Se  Se20  1  0.16678700  0.15300000  0.41353200  1
  Se  Se21  1  0.66678700  0.84700000  0.08646800  1
  Se  Se22  1  0.83321300  0.84700000  0.58646800  1
  Se  Se23  1  0.33321300  0.15300000  0.91353200  1
  Se  Se24  1  0.25273500  0.35850400  0.34006000  1
  Se  Se25  1  0.75273500  0.64149600  0.15994000  1
  Se  Se26  1  0.74726500  0.64149600  0.65994000  1
  Se  Se27  1  0.24726500  0.35850400  0.84006000  1
  Se  Se28  1  0.52022000  0.33686300  0.29435700  1
  Se  Se29  1  0.02022000  0.66313700  0.20564300  1
  Se  Se30  1  0.47978000  0.66313700  0.70564300  1
  Se  Se31  1  0.97978000  0.33686300  0.79435700  1
# generated using pymatgen
data_Se
_symmetry_space_group_name_H-M   'P 1'
_cell_length_a   8.48587100
_cell_length_b   10.23632400
_cell_length_c   13.64031129
_cell_angle_alpha   84.81061454
_cell_angle_beta   90.00000000
_cell_angle_gamma   90.00000000
_symmetry_Int_Tables_number   1
_chemical_formula_structural   Se
_chemical_formula_sum   Se32
_cell_volume   1179.99719308
_cell_formula_units_Z   32
loop_
 _symmetry_equiv_pos_site_id
 _symmetry_equiv_pos_as_xyz
  1  'x, y, z'
loop_
 _atom_site_type_symbol
 _atom_site_label
 _atom_site_symmetry_multiplicity
 _atom_site_fract_x
 _atom_site_fract_y
 _atom_site_fract_z
 _atom_site_occupancy
  Se  Se0  1  0.67957900  0.42387900  0.41465000  1
  Se  Se1  1  0.17957900  0.57612100  0.08535000  1
  Se  Se2  1  0.32042100  0.57612100  0.58535000  1
  Se  Se3  1  0.82042100  0.42387900  0.91465000  1
  Se  Se4  1  0.76598800  0.24654900  0.52416300  1
  Se  Se5  1  0.26598800  0.75345100  0.97583700  1
  Se  Se6  1  0.23401200  0.75345100  0.47583700  1
  Se  Se7  1  0.73401200  0.24654900  0.02416300  1
  Se  Se8  1  0.59769200  0.23261000  0.66345900  1
  Se  Se9  1  0.09769200  0.76739000  0.83654100  1
  Se  Se10  1  0.40230800  0.76739000  0.33654100  1
  Se  Se11  1  0.90230800  0.23261000  0.16345900  1
  Se  Se12  1  0.41473000  0.06278600  0.64491400  1
  Se  Se13  1  0.91473000  0.93721400  0.85508600  1
  Se  Se14  1  0.58527000  0.93721400  0.35508600  1
  Se  Se15  1  0.08527000  0.06278600  0.14491400  1
  Se  Se16  1  0.17650000  0.16133300  0.58670100  1
  Se  Se17  1  0.67650000  0.83866700  0.91329900  1
  Se  Se18  1  0.82350000  0.83866700  0.41329900  1
  Se  Se19  1  0.32350000  0.16133300  0.08670100  1
  Se  Se20  1  0.16678700  0.15300000  0.41353200  1
  Se  Se21  1  0.66678700  0.84700000  0.08646800  1
  Se  Se22  1  0.83321300  0.84700000  0.58646800  1
  Se  Se23  1  0.33321300  0.15300000  0.91353200  1
  Se  Se24  1  0.25273500  0.35850400  0.34006000  1
  Se  Se25  1  0.75273500  0.64149600  0.15994000  1
  Se  Se26  1  0.74726500  0.64149600  0.65994000  1
  Se  Se27  1  0.24726500  0.35850400  0.84006000  1
  Se  Se28  1  0.52022000  0.33686300  0.29435700  1
  Se  Se29  1  0.02022000  0.66313700  0.20564300  1
  Se  Se30  1  0.47978000  0.66313700  0.70564300  1
  Se  Se31  1  0.97978000  0.33686300  0.79435700  1
# generated using pymatgen
data_Se
_symmetry_space_group_name_H-M   'P 1'
_cell_length_a   8.48587100
_cell_length_b   10.23632400
_cell_length_c   13.64031129
_cell_angle_alpha   84.81061454
_cell_angle_beta   90.00000000
_cell_angle_gamma   90.00000000
_symmetry_Int_Tables_number   1
_chemical_formula_structural   Se
_chemical_formula_sum   Se32
_cell_volume   1179.99719308
_cell_formula_units_Z   32
loop_
 _symmetry_equiv_pos_site_id
 _symmetry_equiv_pos_as_xyz
  1  'x, y, z'
loop_
 _atom_site_type_symbol
 _atom_site_label
 _atom_site_symmetry_multiplicity
 _atom_site_fract_x
 _atom_site_fract_y
 _atom_site_fract_z
 _atom_site_occupancy
  Se  Se0  1  0.67957900  0.42387900  0.41465000  1
  Se  Se1  1  0.17957900  0.57612100  0.08535000  1
  Se  Se2  1  0.32042100  0.57612100  0.58535000  1
  Se  Se3  1  0.82042100  0.42387900  0.91465000  1
  Se  Se4  1  0.76598800  0.24654900  0.52416300  1
  Se  Se5  1  0.26598800  0.75345100  0.97583700  1
  Se  Se6  1  0.23401200  0.75345100  0.47583700  1
  Se  Se7  1  0.73401200  0.24654900  0.02416300  1
  Se  Se8  1  0.59769200  0.23261000  0.66345900  1
  Se  Se9  1  0.09769200  0.76739000  0.83654100  1
  Se  Se10  1  0.40230800  0.76739000  0.33654100  1
  Se  Se11  1  0.90230800  0.23261000  0.16345900  1
  Se  Se12  1  0.41473000  0.06278600  0.64491400  1
  Se  Se13  1  0.91473000  0.93721400  0.85508600  1
  Se  Se14  1  0.58527000  0.93721400  0.35508600  1
  Se  Se15  1  0.08527000  0.06278600  0.14491400  1
  Se  Se16  1  0.17650000  0.16133300  0.58670100  1
  Se  Se17  1  0.67650000  0.83866700  0.91329900  1
  Se  Se18  1  0.82350000  0.83866700  0.41329900  1
  Se  Se19  1  0.32350000  0.16133300  0.08670100  1
  Se  Se20  1  0.16678700  0.15300000  0.41353200  1
  Se  Se21  1  0.66678700  0.84700000  0.08646800  1
  Se  Se22  1  0.83321300  0.84700000  0.58646800  1
  Se  Se23  1  0.33321300  0.15300000  0.91353200  1
  Se  Se24  1  0.25273500  0.35850400  0.34006000  1
  Se  Se25  1  0.75273500  0.64149600  0.15994000  1
  Se  Se26  1  0.74726500  0.64149600  0.65994000  1
  Se  Se27  1  0.24726500  0.35850400  0.84006000  1
  Se  Se28  1  0.52022000  0.33686300  0.29435700  1
  Se  Se29  1  0.02022000  0.66313700  0.20564300  1
  Se  Se30  1  0.47978000  0.66313700  0.70564300  1
  Se  Se31  1  0.97978000  0.33686300  0.79435700  1
