# generated using pymatgen
data_Se
_symmetry_space_group_name_H-M   'P 1'
_cell_length_a   15.30902400
_cell_length_b   10.15386300
_cell_length_c   15.73918172
_cell_angle_alpha   85.95713085
_cell_angle_beta   90.00000000
_cell_angle_gamma   90.00000000
_symmetry_Int_Tables_number   1
_chemical_formula_structural   Se
_chemical_formula_sum   Se64
_cell_volume   2440.50048518
_cell_formula_units_Z   64
loop_
 _symmetry_equiv_pos_site_id
 _symmetry_equiv_pos_as_xyz
  1  'x, y, z'
loop_
 _atom_site_type_symbol
 _atom_site_label
 _atom_site_symmetry_multiplicity
 _atom_site_fract_x
 _atom_site_fract_y
 _atom_site_fract_z
 _atom_site_occupancy
  Se  Se0  1  0.82462800  0.82842100  0.08641500  1
  Se  Se1  1  0.85756300  0.04808400  0.81461600  1
  Se  Se2  1  0.23628800  0.63537200  0.69143700  1
  Se  Se3  1  0.71394800  0.15048000  0.52639000  1
  Se  Se4  1  0.99028700  0.65236100  0.90675100  1
  Se  Se5  1  0.71404900  0.87913100  0.98471200  1
  Se  Se6  1  0.35449900  0.39712900  0.52586200  1
  Se  Se7  1  0.64243700  0.54808400  0.81461600  1
  Se  Se8  1  0.78595100  0.37913100  0.98471200  1
  Se  Se9  1  0.67537200  0.32842100  0.08641500  1
  Se  Se10  1  0.85449900  0.10287100  0.47413800  1
  Se  Se11  1  0.04742600  0.77722900  0.23045200  1
  Se  Se12  1  0.73628800  0.86462800  0.30856300  1
  Se  Se13  1  0.14243700  0.95191600  0.18538400  1
  Se  Se14  1  0.35756300  0.45191600  0.18538400  1
  Se  Se15  1  0.52482200  0.34226700  0.35378800  1
  Se  Se16  1  0.59395900  0.73546000  0.01342800  1
  Se  Se17  1  0.09395900  0.76454000  0.98657200  1
  Se  Se18  1  0.69053700  0.47890800  0.19315200  1
  Se  Se19  1  0.41057800  0.06295000  0.69585500  1
  Se  Se20  1  0.45378000  0.24163900  0.47564400  1
  Se  Se21  1  0.91057800  0.43705000  0.30414500  1
  Se  Se22  1  0.14550100  0.89712900  0.52586200  1
  Se  Se23  1  0.50814300  0.77450100  0.23815200  1
  Se  Se24  1  0.21404900  0.62086900  0.01528800  1
  Se  Se25  1  0.58942200  0.93705000  0.30414500  1
  Se  Se26  1  0.19053700  0.02109200  0.80684800  1
  Se  Se27  1  0.50971300  0.15236100  0.90675100  1
  Se  Se28  1  0.54622000  0.75836100  0.52435600  1
  Se  Se29  1  0.49028700  0.84763900  0.09324900  1
  Se  Se30  1  0.02482200  0.15773300  0.64621200  1
  Se  Se31  1  0.28482300  0.88898100  0.23135000  1
  Se  Se32  1  0.68534500  0.00024800  0.64447600  1
  Se  Se33  1  0.47517800  0.65773300  0.64621200  1
  Se  Se34  1  0.28595100  0.12086900  0.01528800  1
  Se  Se35  1  0.00971300  0.34763900  0.09324900  1
  Se  Se36  1  0.08942200  0.56295000  0.69585500  1
  Se  Se37  1  0.80946300  0.97890800  0.19315200  1
  Se  Se38  1  0.18534500  0.49975200  0.35552400  1
  Se  Se39  1  0.78482300  0.61101900  0.76865000  1
  Se  Se40  1  0.26371200  0.13537200  0.69143700  1
  Se  Se41  1  0.28605200  0.84952000  0.47361000  1
  Se  Se42  1  0.54742600  0.72277100  0.76954800  1
  Se  Se43  1  0.04622000  0.74163900  0.47564400  1
  Se  Se44  1  0.99185700  0.27450100  0.23815200  1
  Se  Se45  1  0.78605200  0.65048000  0.52639000  1
  Se  Se46  1  0.64550100  0.60287100  0.47413800  1
  Se  Se47  1  0.40604100  0.26454000  0.98657200  1
  Se  Se48  1  0.97517800  0.84226700  0.35378800  1
  Se  Se49  1  0.32462800  0.67157900  0.91358500  1
  Se  Se50  1  0.95257400  0.22277100  0.76954800  1
  Se  Se51  1  0.49185700  0.22549900  0.76184800  1
  Se  Se52  1  0.21517700  0.38898100  0.23135000  1
  Se  Se53  1  0.30946300  0.52109200  0.80684800  1
  Se  Se54  1  0.17537200  0.17157900  0.91358500  1
  Se  Se55  1  0.21394800  0.34952000  0.47361000  1
  Se  Se56  1  0.00814300  0.72549900  0.76184800  1
  Se  Se57  1  0.45257400  0.27722900  0.23045200  1
  Se  Se58  1  0.71517700  0.11101900  0.76865000  1
  Se  Se59  1  0.90604100  0.23546000  0.01342800  1
  Se  Se60  1  0.31465500  0.99975200  0.35552400  1
  Se  Se61  1  0.95378000  0.25836100  0.52435600  1
  Se  Se62  1  0.81465500  0.50024800  0.64447600  1
  Se  Se63  1  0.76371200  0.36462800  0.30856300  1
# generated using pymatgen
data_Se
_symmetry_space_group_name_H-M   'P 1'
_cell_length_a   15.30902400
_cell_length_b   10.15386300
_cell_length_c   15.73918172
_cell_angle_alpha   85.95713085
_cell_angle_beta   90.00000000
_cell_angle_gamma   90.00000000
_symmetry_Int_Tables_number   1
_chemical_formula_structural   Se
_chemical_formula_sum   Se64
_cell_volume   2440.50048518
_cell_formula_units_Z   64
loop_
 _symmetry_equiv_pos_site_id
 _symmetry_equiv_pos_as_xyz
  1  'x, y, z'
loop_
 _atom_site_type_symbol
 _atom_site_label
 _atom_site_symmetry_multiplicity
 _atom_site_fract_x
 _atom_site_fract_y
 _atom_site_fract_z
 _atom_site_occupancy
  Se  Se0  1  0.82462800  0.82842100  0.08641500  1
  Se  Se1  1  0.85756300  0.04808400  0.81461600  1
  Se  Se2  1  0.23628800  0.63537200  0.69143700  1
  Se  Se3  1  0.71394800  0.15048000  0.52639000  1
  Se  Se4  1  0.99028700  0.65236100  0.90675100  1
  Se  Se5  1  0.71404900  0.87913100  0.98471200  1
  Se  Se6  1  0.35449900  0.39712900  0.52586200  1
  Se  Se7  1  0.64243700  0.54808400  0.81461600  1
  Se  Se8  1  0.78595100  0.37913100  0.98471200  1
  Se  Se9  1  0.67537200  0.32842100  0.08641500  1
  Se  Se10  1  0.85449900  0.10287100  0.47413800  1
  Se  Se11  1  0.04742600  0.77722900  0.23045200  1
  Se  Se12  1  0.73628800  0.86462800  0.30856300  1
  Se  Se13  1  0.14243700  0.95191600  0.18538400  1
  Se  Se14  1  0.35756300  0.45191600  0.18538400  1
  Se  Se15  1  0.52482200  0.34226700  0.35378800  1
  Se  Se16  1  0.59395900  0.73546000  0.01342800  1
  Se  Se17  1  0.09395900  0.76454000  0.98657200  1
  Se  Se18  1  0.69053700  0.47890800  0.19315200  1
  Se  Se19  1  0.41057800  0.06295000  0.69585500  1
  Se  Se20  1  0.45378000  0.24163900  0.47564400  1
  Se  Se21  1  0.91057800  0.43705000  0.30414500  1
  Se  Se22  1  0.14550100  0.89712900  0.52586200  1
  Se  Se23  1  0.50814300  0.77450100  0.23815200  1
  Se  Se24  1  0.21404900  0.62086900  0.01528800  1
  Se  Se25  1  0.58942200  0.93705000  0.30414500  1
  Se  Se26  1  0.19053700  0.02109200  0.80684800  1
  Se  Se27  1  0.50971300  0.15236100  0.90675100  1
  Se  Se28  1  0.54622000  0.75836100  0.52435600  1
  Se  Se29  1  0.49028700  0.84763900  0.09324900  1
  Se  Se30  1  0.02482200  0.15773300  0.64621200  1
  Se  Se31  1  0.28482300  0.88898100  0.23135000  1
  Se  Se32  1  0.68534500  0.00024800  0.64447600  1
  Se  Se33  1  0.47517800  0.65773300  0.64621200  1
  Se  Se34  1  0.28595100  0.12086900  0.01528800  1
  Se  Se35  1  0.00971300  0.34763900  0.09324900  1
  Se  Se36  1  0.08942200  0.56295000  0.69585500  1
  Se  Se37  1  0.80946300  0.97890800  0.19315200  1
  Se  Se38  1  0.18534500  0.49975200  0.35552400  1
  Se  Se39  1  0.78482300  0.61101900  0.76865000  1
  Se  Se40  1  0.26371200  0.13537200  0.69143700  1
  Se  Se41  1  0.28605200  0.84952000  0.47361000  1
  Se  Se42  1  0.54742600  0.72277100  0.76954800  1
  Se  Se43  1  0.04622000  0.74163900  0.47564400  1
  Se  Se44  1  0.99185700  0.27450100  0.23815200  1
  Se  Se45  1  0.78605200  0.65048000  0.52639000  1
  Se  Se46  1  0.64550100  0.60287100  0.47413800  1
  Se  Se47  1  0.40604100  0.26454000  0.98657200  1
  Se  Se48  1  0.97517800  0.84226700  0.35378800  1
  Se  Se49  1  0.32462800  0.67157900  0.91358500  1
  Se  Se50  1  0.95257400  0.22277100  0.76954800  1
  Se  Se51  1  0.49185700  0.22549900  0.76184800  1
  Se  Se52  1  0.21517700  0.38898100  0.23135000  1
  Se  Se53  1  0.30946300  0.52109200  0.80684800  1
  Se  Se54  1  0.17537200  0.17157900  0.91358500  1
  Se  Se55  1  0.21394800  0.34952000  0.47361000  1
  Se  Se56  1  0.00814300  0.72549900  0.76184800  1
  Se  Se57  1  0.45257400  0.27722900  0.23045200  1
  Se  Se58  1  0.71517700  0.11101900  0.76865000  1
  Se  Se59  1  0.90604100  0.23546000  0.01342800  1
  Se  Se60  1  0.31465500  0.99975200  0.35552400  1
  Se  Se61  1  0.95378000  0.25836100  0.52435600  1
  Se  Se62  1  0.81465500  0.50024800  0.64447600  1
  Se  Se63  1  0.76371200  0.36462800  0.30856300  1
# generated using pymatgen
data_Se
_symmetry_space_group_name_H-M   'P 1'
_cell_length_a   15.30902400
_cell_length_b   10.15386300
_cell_length_c   15.73918172
_cell_angle_alpha   85.95713085
_cell_angle_beta   90.00000000
_cell_angle_gamma   90.00000000
_symmetry_Int_Tables_number   1
_chemical_formula_structural   Se
_chemical_formula_sum   Se64
_cell_volume   2440.50048518
_cell_formula_units_Z   64
loop_
 _symmetry_equiv_pos_site_id
 _symmetry_equiv_pos_as_xyz
  1  'x, y, z'
loop_
 _atom_site_type_symbol
 _atom_site_label
 _atom_site_symmetry_multiplicity
 _atom_site_fract_x
 _atom_site_fract_y
 _atom_site_fract_z
 _atom_site_occupancy
  Se  Se0  1  0.82462800  0.82842100  0.08641500  1
  Se  Se1  1  0.85756300  0.04808400  0.81461600  1
  Se  Se2  1  0.23628800  0.63537200  0.69143700  1
  Se  Se3  1  0.71394800  0.15048000  0.52639000  1
  Se  Se4  1  0.99028700  0.65236100  0.90675100  1
  Se  Se5  1  0.71404900  0.87913100  0.98471200  1
  Se  Se6  1  0.35449900  0.39712900  0.52586200  1
  Se  Se7  1  0.64243700  0.54808400  0.81461600  1
  Se  Se8  1  0.78595100  0.37913100  0.98471200  1
  Se  Se9  1  0.67537200  0.32842100  0.08641500  1
  Se  Se10  1  0.85449900  0.10287100  0.47413800  1
  Se  Se11  1  0.04742600  0.77722900  0.23045200  1
  Se  Se12  1  0.73628800  0.86462800  0.30856300  1
  Se  Se13  1  0.14243700  0.95191600  0.18538400  1
  Se  Se14  1  0.35756300  0.45191600  0.18538400  1
  Se  Se15  1  0.52482200  0.34226700  0.35378800  1
  Se  Se16  1  0.59395900  0.73546000  0.01342800  1
  Se  Se17  1  0.09395900  0.76454000  0.98657200  1
  Se  Se18  1  0.69053700  0.47890800  0.19315200  1
  Se  Se19  1  0.41057800  0.06295000  0.69585500  1
  Se  Se20  1  0.45378000  0.24163900  0.47564400  1
  Se  Se21  1  0.91057800  0.43705000  0.30414500  1
  Se  Se22  1  0.14550100  0.89712900  0.52586200  1
  Se  Se23  1  0.50814300  0.77450100  0.23815200  1
  Se  Se24  1  0.21404900  0.62086900  0.01528800  1
  Se  Se25  1  0.58942200  0.93705000  0.30414500  1
  Se  Se26  1  0.19053700  0.02109200  0.80684800  1
  Se  Se27  1  0.50971300  0.15236100  0.90675100  1
  Se  Se28  1  0.54622000  0.75836100  0.52435600  1
  Se  Se29  1  0.49028700  0.84763900  0.09324900  1
  Se  Se30  1  0.02482200  0.15773300  0.64621200  1
  Se  Se31  1  0.28482300  0.88898100  0.23135000  1
  Se  Se32  1  0.68534500  0.00024800  0.64447600  1
  Se  Se33  1  0.47517800  0.65773300  0.64621200  1
  Se  Se34  1  0.28595100  0.12086900  0.01528800  1
  Se  Se35  1  0.00971300  0.34763900  0.09324900  1
  Se  Se36  1  0.08942200  0.56295000  0.69585500  1
  Se  Se37  1  0.80946300  0.97890800  0.19315200  1
  Se  Se38  1  0.18534500  0.49975200  0.35552400  1
  Se  Se39  1  0.78482300  0.61101900  0.76865000  1
  Se  Se40  1  0.26371200  0.13537200  0.69143700  1
  Se  Se41  1  0.28605200  0.84952000  0.47361000  1
  Se  Se42  1  0.54742600  0.72277100  0.76954800  1
  Se  Se43  1  0.04622000  0.74163900  0.47564400  1
  Se  Se44  1  0.99185700  0.27450100  0.23815200  1
  Se  Se45  1  0.78605200  0.65048000  0.52639000  1
  Se  Se46  1  0.64550100  0.60287100  0.47413800  1
  Se  Se47  1  0.40604100  0.26454000  0.98657200  1
  Se  Se48  1  0.97517800  0.84226700  0.35378800  1
  Se  Se49  1  0.32462800  0.67157900  0.91358500  1
  Se  Se50  1  0.95257400  0.22277100  0.76954800  1
  Se  Se51  1  0.49185700  0.22549900  0.76184800  1
  Se  Se52  1  0.21517700  0.38898100  0.23135000  1
  Se  Se53  1  0.30946300  0.52109200  0.80684800  1
  Se  Se54  1  0.17537200  0.17157900  0.91358500  1
  Se  Se55  1  0.21394800  0.34952000  0.47361000  1
  Se  Se56  1  0.00814300  0.72549900  0.76184800  1
  Se  Se57  1  0.45257400  0.27722900  0.23045200  1
  Se  Se58  1  0.71517700  0.11101900  0.76865000  1
  Se  Se59  1  0.90604100  0.23546000  0.01342800  1
  Se  Se60  1  0.31465500  0.99975200  0.35552400  1
  Se  Se61  1  0.95378000  0.25836100  0.52435600  1
  Se  Se62  1  0.81465500  0.50024800  0.64447600  1
  Se  Se63  1  0.76371200  0.36462800  0.30856300  1
# generated using pymatgen
data_Se
_symmetry_space_group_name_H-M   'P 1'
_cell_length_a   15.30902400
_cell_length_b   10.15386300
_cell_length_c   15.73918172
_cell_angle_alpha   85.95713085
_cell_angle_beta   90.00000000
_cell_angle_gamma   90.00000000
_symmetry_Int_Tables_number   1
_chemical_formula_structural   Se
_chemical_formula_sum   Se64
_cell_volume   2440.50048518
_cell_formula_units_Z   64
loop_
 _symmetry_equiv_pos_site_id
 _symmetry_equiv_pos_as_xyz
  1  'x, y, z'
loop_
 _atom_site_type_symbol
 _atom_site_label
 _atom_site_symmetry_multiplicity
 _atom_site_fract_x
 _atom_site_fract_y
 _atom_site_fract_z
 _atom_site_occupancy
  Se  Se0  1  0.82462800  0.82842100  0.08641500  1
  Se  Se1  1  0.85756300  0.04808400  0.81461600  1
  Se  Se2  1  0.23628800  0.63537200  0.69143700  1
  Se  Se3  1  0.71394800  0.15048000  0.52639000  1
  Se  Se4  1  0.99028700  0.65236100  0.90675100  1
  Se  Se5  1  0.71404900  0.87913100  0.98471200  1
  Se  Se6  1  0.35449900  0.39712900  0.52586200  1
  Se  Se7  1  0.64243700  0.54808400  0.81461600  1
  Se  Se8  1  0.78595100  0.37913100  0.98471200  1
  Se  Se9  1  0.67537200  0.32842100  0.08641500  1
  Se  Se10  1  0.85449900  0.10287100  0.47413800  1
  Se  Se11  1  0.04742600  0.77722900  0.23045200  1
  Se  Se12  1  0.73628800  0.86462800  0.30856300  1
  Se  Se13  1  0.14243700  0.95191600  0.18538400  1
  Se  Se14  1  0.35756300  0.45191600  0.18538400  1
  Se  Se15  1  0.52482200  0.34226700  0.35378800  1
  Se  Se16  1  0.59395900  0.73546000  0.01342800  1
  Se  Se17  1  0.09395900  0.76454000  0.98657200  1
  Se  Se18  1  0.69053700  0.47890800  0.19315200  1
  Se  Se19  1  0.41057800  0.06295000  0.69585500  1
  Se  Se20  1  0.45378000  0.24163900  0.47564400  1
  Se  Se21  1  0.91057800  0.43705000  0.30414500  1
  Se  Se22  1  0.14550100  0.89712900  0.52586200  1
  Se  Se23  1  0.50814300  0.77450100  0.23815200  1
  Se  Se24  1  0.21404900  0.62086900  0.01528800  1
  Se  Se25  1  0.58942200  0.93705000  0.30414500  1
  Se  Se26  1  0.19053700  0.02109200  0.80684800  1
  Se  Se27  1  0.50971300  0.15236100  0.90675100  1
  Se  Se28  1  0.54622000  0.75836100  0.52435600  1
  Se  Se29  1  0.49028700  0.84763900  0.09324900  1
  Se  Se30  1  0.02482200  0.15773300  0.64621200  1
  Se  Se31  1  0.28482300  0.88898100  0.23135000  1
  Se  Se32  1  0.68534500  0.00024800  0.64447600  1
  Se  Se33  1  0.47517800  0.65773300  0.64621200  1
  Se  Se34  1  0.28595100  0.12086900  0.01528800  1
  Se  Se35  1  0.00971300  0.34763900  0.09324900  1
  Se  Se36  1  0.08942200  0.56295000  0.69585500  1
  Se  Se37  1  0.80946300  0.97890800  0.19315200  1
  Se  Se38  1  0.18534500  0.49975200  0.35552400  1
  Se  Se39  1  0.78482300  0.61101900  0.76865000  1
  Se  Se40  1  0.26371200  0.13537200  0.69143700  1
  Se  Se41  1  0.28605200  0.84952000  0.47361000  1
  Se  Se42  1  0.54742600  0.72277100  0.76954800  1
  Se  Se43  1  0.04622000  0.74163900  0.47564400  1
  Se  Se44  1  0.99185700  0.27450100  0.23815200  1
  Se  Se45  1  0.78605200  0.65048000  0.52639000  1
  Se  Se46  1  0.64550100  0.60287100  0.47413800  1
  Se  Se47  1  0.40604100  0.26454000  0.98657200  1
  Se  Se48  1  0.97517800  0.84226700  0.35378800  1
  Se  Se49  1  0.32462800  0.67157900  0.91358500  1
  Se  Se50  1  0.95257400  0.22277100  0.76954800  1
  Se  Se51  1  0.49185700  0.22549900  0.76184800  1
  Se  Se52  1  0.21517700  0.38898100  0.23135000  1
  Se  Se53  1  0.30946300  0.52109200  0.80684800  1
  Se  Se54  1  0.17537200  0.17157900  0.91358500  1
  Se  Se55  1  0.21394800  0.34952000  0.47361000  1
  Se  Se56  1  0.00814300  0.72549900  0.76184800  1
  Se  Se57  1  0.45257400  0.27722900  0.23045200  1
  Se  Se58  1  0.71517700  0.11101900  0.76865000  1
  Se  Se59  1  0.90604100  0.23546000  0.01342800  1
  Se  Se60  1  0.31465500  0.99975200  0.35552400  1
  Se  Se61  1  0.95378000  0.25836100  0.52435600  1
  Se  Se62  1  0.81465500  0.50024800  0.64447600  1
  Se  Se63  1  0.76371200  0.36462800  0.30856300  1
# generated using pymatgen
data_Se
_symmetry_space_group_name_H-M   'P 1'
_cell_length_a   15.30902400
_cell_length_b   10.15386300
_cell_length_c   15.73918172
_cell_angle_alpha   85.95713085
_cell_angle_beta   90.00000000
_cell_angle_gamma   90.00000000
_symmetry_Int_Tables_number   1
_chemical_formula_structural   Se
_chemical_formula_sum   Se64
_cell_volume   2440.50048518
_cell_formula_units_Z   64
loop_
 _symmetry_equiv_pos_site_id
 _symmetry_equiv_pos_as_xyz
  1  'x, y, z'
loop_
 _atom_site_type_symbol
 _atom_site_label
 _atom_site_symmetry_multiplicity
 _atom_site_fract_x
 _atom_site_fract_y
 _atom_site_fract_z
 _atom_site_occupancy
  Se  Se0  1  0.82462800  0.82842100  0.08641500  1
  Se  Se1  1  0.85756300  0.04808400  0.81461600  1
  Se  Se2  1  0.23628800  0.63537200  0.69143700  1
  Se  Se3  1  0.71394800  0.15048000  0.52639000  1
  Se  Se4  1  0.99028700  0.65236100  0.90675100  1
  Se  Se5  1  0.71404900  0.87913100  0.98471200  1
  Se  Se6  1  0.35449900  0.39712900  0.52586200  1
  Se  Se7  1  0.64243700  0.54808400  0.81461600  1
  Se  Se8  1  0.78595100  0.37913100  0.98471200  1
  Se  Se9  1  0.67537200  0.32842100  0.08641500  1
  Se  Se10  1  0.85449900  0.10287100  0.47413800  1
  Se  Se11  1  0.04742600  0.77722900  0.23045200  1
  Se  Se12  1  0.73628800  0.86462800  0.30856300  1
  Se  Se13  1  0.14243700  0.95191600  0.18538400  1
  Se  Se14  1  0.35756300  0.45191600  0.18538400  1
  Se  Se15  1  0.52482200  0.34226700  0.35378800  1
  Se  Se16  1  0.59395900  0.73546000  0.01342800  1
  Se  Se17  1  0.09395900  0.76454000  0.98657200  1
  Se  Se18  1  0.69053700  0.47890800  0.19315200  1
  Se  Se19  1  0.41057800  0.06295000  0.69585500  1
  Se  Se20  1  0.45378000  0.24163900  0.47564400  1
  Se  Se21  1  0.91057800  0.43705000  0.30414500  1
  Se  Se22  1  0.14550100  0.89712900  0.52586200  1
  Se  Se23  1  0.50814300  0.77450100  0.23815200  1
  Se  Se24  1  0.21404900  0.62086900  0.01528800  1
  Se  Se25  1  0.58942200  0.93705000  0.30414500  1
  Se  Se26  1  0.19053700  0.02109200  0.80684800  1
  Se  Se27  1  0.50971300  0.15236100  0.90675100  1
  Se  Se28  1  0.54622000  0.75836100  0.52435600  1
  Se  Se29  1  0.49028700  0.84763900  0.09324900  1
  Se  Se30  1  0.02482200  0.15773300  0.64621200  1
  Se  Se31  1  0.28482300  0.88898100  0.23135000  1
  Se  Se32  1  0.68534500  0.00024800  0.64447600  1
  Se  Se33  1  0.47517800  0.65773300  0.64621200  1
  Se  Se34  1  0.28595100  0.12086900  0.01528800  1
  Se  Se35  1  0.00971300  0.34763900  0.09324900  1
  Se  Se36  1  0.08942200  0.56295000  0.69585500  1
  Se  Se37  1  0.80946300  0.97890800  0.19315200  1
  Se  Se38  1  0.18534500  0.49975200  0.35552400  1
  Se  Se39  1  0.78482300  0.61101900  0.76865000  1
  Se  Se40  1  0.26371200  0.13537200  0.69143700  1
  Se  Se41  1  0.28605200  0.84952000  0.47361000  1
  Se  Se42  1  0.54742600  0.72277100  0.76954800  1
  Se  Se43  1  0.04622000  0.74163900  0.47564400  1
  Se  Se44  1  0.99185700  0.27450100  0.23815200  1
  Se  Se45  1  0.78605200  0.65048000  0.52639000  1
  Se  Se46  1  0.64550100  0.60287100  0.47413800  1
  Se  Se47  1  0.40604100  0.26454000  0.98657200  1
  Se  Se48  1  0.97517800  0.84226700  0.35378800  1
  Se  Se49  1  0.32462800  0.67157900  0.91358500  1
  Se  Se50  1  0.95257400  0.22277100  0.76954800  1
  Se  Se51  1  0.49185700  0.22549900  0.76184800  1
  Se  Se52  1  0.21517700  0.38898100  0.23135000  1
  Se  Se53  1  0.30946300  0.52109200  0.80684800  1
  Se  Se54  1  0.17537200  0.17157900  0.91358500  1
  Se  Se55  1  0.21394800  0.34952000  0.47361000  1
  Se  Se56  1  0.00814300  0.72549900  0.76184800  1
  Se  Se57  1  0.45257400  0.27722900  0.23045200  1
  Se  Se58  1  0.71517700  0.11101900  0.76865000  1
  Se  Se59  1  0.90604100  0.23546000  0.01342800  1
  Se  Se60  1  0.31465500  0.99975200  0.35552400  1
  Se  Se61  1  0.95378000  0.25836100  0.52435600  1
  Se  Se62  1  0.81465500  0.50024800  0.64447600  1
  Se  Se63  1  0.76371200  0.36462800  0.30856300  1
