# generated using pymatgen
data_Si
_symmetry_space_group_name_H-M   'P 1'
_cell_length_a   5.10955969
_cell_length_b   5.10955969
_cell_length_c   5.10955969
_cell_angle_alpha   98.21160892
_cell_angle_beta   98.21160892
_cell_angle_gamma   135.58922213
_symmetry_Int_Tables_number   1
_chemical_formula_structural   Si
_chemical_formula_sum   Si4
_cell_volume   86.42842018
_cell_formula_units_Z   4
loop_
 _symmetry_equiv_pos_site_id
 _symmetry_equiv_pos_as_xyz
  1  'x, y, z'
loop_
 _atom_site_type_symbol
 _atom_site_label
 _atom_site_symmetry_multiplicity
 _atom_site_fract_x
 _atom_site_fract_y
 _atom_site_fract_z
 _atom_site_occupancy
  Si  Si0  1  0.17862500  0.17862500  0.35725100  1
  Si  Si1  1  0.82137500  0.82137500  0.64274900  1
  Si  Si2  1  0.82137500  0.17862500  0.00000000  1
  Si  Si3  1  0.17862500  0.82137500  0.00000000  1
# generated using pymatgen
data_Si
_symmetry_space_group_name_H-M   'P 1'
_cell_length_a   5.10955969
_cell_length_b   5.10955969
_cell_length_c   5.10955969
_cell_angle_alpha   98.21160892
_cell_angle_beta   98.21160892
_cell_angle_gamma   135.58922213
_symmetry_Int_Tables_number   1
_chemical_formula_structural   Si
_chemical_formula_sum   Si4
_cell_volume   86.42842018
_cell_formula_units_Z   4
loop_
 _symmetry_equiv_pos_site_id
 _symmetry_equiv_pos_as_xyz
  1  'x, y, z'
loop_
 _atom_site_type_symbol
 _atom_site_label
 _atom_site_symmetry_multiplicity
 _atom_site_fract_x
 _atom_site_fract_y
 _atom_site_fract_z
 _atom_site_occupancy
  Si  Si0  1  0.17862500  0.17862500  0.35725100  1
  Si  Si1  1  0.82137500  0.82137500  0.64274900  1
  Si  Si2  1  0.82137500  0.17862500  0.00000000  1
  Si  Si3  1  0.17862500  0.82137500  0.00000000  1
# generated using pymatgen
data_Si
_symmetry_space_group_name_H-M   'P 1'
_cell_length_a   5.10955969
_cell_length_b   5.10955969
_cell_length_c   5.10955969
_cell_angle_alpha   98.21160892
_cell_angle_beta   98.21160892
_cell_angle_gamma   135.58922213
_symmetry_Int_Tables_number   1
_chemical_formula_structural   Si
_chemical_formula_sum   Si4
_cell_volume   86.42842018
_cell_formula_units_Z   4
loop_
 _symmetry_equiv_pos_site_id
 _symmetry_equiv_pos_as_xyz
  1  'x, y, z'
loop_
 _atom_site_type_symbol
 _atom_site_label
 _atom_site_symmetry_multiplicity
 _atom_site_fract_x
 _atom_site_fract_y
 _atom_site_fract_z
 _atom_site_occupancy
  Si  Si0  1  0.17862500  0.17862500  0.35725100  1
  Si  Si1  1  0.82137500  0.82137500  0.64274900  1
  Si  Si2  1  0.82137500  0.17862500  0.00000000  1
  Si  Si3  1  0.17862500  0.82137500  0.00000000  1
# generated using pymatgen
data_Si
_symmetry_space_group_name_H-M   'P 1'
_cell_length_a   5.10955969
_cell_length_b   5.10955969
_cell_length_c   5.10955969
_cell_angle_alpha   98.21160892
_cell_angle_beta   98.21160892
_cell_angle_gamma   135.58922213
_symmetry_Int_Tables_number   1
_chemical_formula_structural   Si
_chemical_formula_sum   Si4
_cell_volume   86.42842018
_cell_formula_units_Z   4
loop_
 _symmetry_equiv_pos_site_id
 _symmetry_equiv_pos_as_xyz
  1  'x, y, z'
loop_
 _atom_site_type_symbol
 _atom_site_label
 _atom_site_symmetry_multiplicity
 _atom_site_fract_x
 _atom_site_fract_y
 _atom_site_fract_z
 _atom_site_occupancy
  Si  Si0  1  0.17862500  0.17862500  0.35725100  1
  Si  Si1  1  0.82137500  0.82137500  0.64274900  1
  Si  Si2  1  0.82137500  0.17862500  0.00000000  1
  Si  Si3  1  0.17862500  0.82137500  0.00000000  1
# generated using pymatgen
data_Si
_symmetry_space_group_name_H-M   'P 1'
_cell_length_a   5.10955969
_cell_length_b   5.10955969
_cell_length_c   5.10955969
_cell_angle_alpha   98.21160892
_cell_angle_beta   98.21160892
_cell_angle_gamma   135.58922213
_symmetry_Int_Tables_number   1
_chemical_formula_structural   Si
_chemical_formula_sum   Si4
_cell_volume   86.42842018
_cell_formula_units_Z   4
loop_
 _symmetry_equiv_pos_site_id
 _symmetry_equiv_pos_as_xyz
  1  'x, y, z'
loop_
 _atom_site_type_symbol
 _atom_site_label
 _atom_site_symmetry_multiplicity
 _atom_site_fract_x
 _atom_site_fract_y
 _atom_site_fract_z
 _atom_site_occupancy
  Si  Si0  1  0.17862500  0.17862500  0.35725100  1
  Si  Si1  1  0.82137500  0.82137500  0.64274900  1
  Si  Si2  1  0.82137500  0.17862500  0.00000000  1
  Si  Si3  1  0.17862500  0.82137500  0.00000000  1
# generated using pymatgen
data_Si
_symmetry_space_group_name_H-M   'P 1'
_cell_length_a   5.10955969
_cell_length_b   5.10955969
_cell_length_c   5.10955969
_cell_angle_alpha   98.21160892
_cell_angle_beta   98.21160892
_cell_angle_gamma   135.58922213
_symmetry_Int_Tables_number   1
_chemical_formula_structural   Si
_chemical_formula_sum   Si4
_cell_volume   86.42842018
_cell_formula_units_Z   4
loop_
 _symmetry_equiv_pos_site_id
 _symmetry_equiv_pos_as_xyz
  1  'x, y, z'
loop_
 _atom_site_type_symbol
 _atom_site_label
 _atom_site_symmetry_multiplicity
 _atom_site_fract_x
 _atom_site_fract_y
 _atom_site_fract_z
 _atom_site_occupancy
  Si  Si0  1  0.17862500  0.17862500  0.35725100  1
  Si  Si1  1  0.82137500  0.82137500  0.64274900  1
  Si  Si2  1  0.82137500  0.17862500  0.00000000  1
  Si  Si3  1  0.17862500  0.82137500  0.00000000  1
